version 2
run General-0-20180514-23:57:23-17486
attr configname General
attr datetime 20180514-23:57:23
attr experiment General
attr inifile omnetpp.ini
attr iterationvars ""
attr iterationvarsf ""
attr measurement ""
attr network AmbulanceProject
attr processid 17486
attr repetition 0
attr replication #0
attr resultdir results
attr runnumber 0
attr seedset 0
param **.low_severity.interArrivalTime exponential(1041s)
param **.low_severity.jobPriority 0
param **.medium_severity.interArrivalTime exponential(58s)
param **.medium_severity.jobPriority 1
param **.high_severity.interArrivalTime exponential(34s)
param **.high_severity.jobPriority 2
param **.ambulance1.serviceTime exponential(411s)
param **.ambulance2.serviceTime exponential(411s)
param **.ambulance3.serviceTime exponential(411s)
param **.ambulance4.serviceTime exponential(411s)
param **.ambulance5.serviceTime exponential(411s)
param **.ambulance6.serviceTime exponential(411s)
param **.ambulance7.serviceTime exponential(411s)
param **.ambulance8.serviceTime exponential(411s)
param **.ambulance9.serviceTime exponential(411s)
param **.ambulance10.serviceTime exponential(411s)
param **.ambulance11.serviceTime exponential(411s)
param **.ambulance12.serviceTime exponential(411s)
param **.ambulance13.serviceTime exponential(411s)
param **.ambulance14.serviceTime exponential(411s)
param **.ambulance15.serviceTime exponential(411s)
param **.ambulance16.serviceTime exponential(411s)
param **.ambulance17.serviceTime exponential(411s)
param **.ambulance18.serviceTime exponential(411s)
param **.ambulance19.serviceTime exponential(411s)
param **.ambulance20.serviceTime exponential(411s)
param **.low_severity.numJobs 1000
param **.low_severity.jobType 0
param **.high_severity.numJobs 1000
param **.high_severity.jobType 2
param **.medium_severity.numJobs 1000
param **.medium_severity.jobType 1

vector 0 AmbulanceProject.low_severity_queue queueLength:vector ETV
attr interpolationmode sample-hold
attr title "queue length, vector"
vector 1 AmbulanceProject.medium_severity_queue queueLength:vector ETV
attr interpolationmode sample-hold
attr title "queue length, vector"
vector 2 AmbulanceProject.high_severity_queue queueLength:vector ETV
attr interpolationmode sample-hold
attr title "queue length, vector"
vector 3 AmbulanceProject.hospital lifeTime:vector ETV
attr interpolationmode none
attr title "lifetime of arrived jobs, vector"
attr unit s
0	0	0	0
0	191	828.505359252972	1
0	288	1144.2911278483	0
0	1733	6645.279333284305	1
0	1740	6670.217688057675	0
0	1979	7495.756236084746	1
0	1980	7497.783652350491	0
0	2024	7571.144529714026	1
0	2028	7579.691413702792	0
0	2042	7654.506618751721	1
0	2178	8070.860277403042	0
0	3095	11425.291716076854	1
0	3096	11427.229664685526	0
0	3215	11796.060294684528	1
0	3234	11847.671378430448	0
0	3722	13664.315006355555	1
0	3833	14089.790084413249	2
0	3893	14307.946714053786	3
0	3972	14616.074451938827	2
0	4085	14975.139669600859	3
0	4128	15113.635414706382	2
0	4763	17266.190035815548	3
0	5454	19490.843052661793	2
0	5499	19755.82624728021	1
0	5514	19800.723856726687	0
0	5942	21467.765281824771	1
0	6002	21738.017813268896	2
0	6101	22002.573298556838	3
0	6156	22228.240303473557	2
0	6189	22373.631389069414	1
0	6204	22413.731174020608	0
0	6872	24786.997827564903	1
0	6962	25112.772379269923	2
0	7421	26781.397043765304	3
0	7532	27210.548642068564	4
0	7721	28097.897307901954	5
0	8036	29333.098399555071	6
0	8127	29586.670045933039	5
0	8130	29590.64243901284	4
0	8133	29595.62720657704	3
0	8136	29596.946211964982	2
0	8145	29620.135157965509	1
0	8148	29658.144429867242	0
0	8183	29820.812055431291	1
0	8190	29872.234030449083	0
0	8870	32427.08760480741	1
0	9092	33216.381060974142	2
0	9449	34625.123200166659	3
0	9560	35019.560035256628	4
0	9716	35571.699416377584	5
0	9882	36192.843625090768	4
0	9885	36194.984334492541	3
0	9888	36196.848339657909	2
0	9891	36203.454524911052	1
0	9894	36217.06305018419	0
1	0	0	0
1	173	743.601931679388	1
1	179	758.185563739727	2
1	185	786.52187259959	3
1	206	921.598848304013	4
1	210	929.09982093722	3
1	213	954.629205318904	2
1	216	969.651315002036	1
1	219	970.22147214724	0
1	230	990.973100672522	1
1	233	1004.673089625319	2
1	242	1030.390523285313	3
1	251	1052.370317213708	4
1	260	1075.170845537346	5
1	261	1078.626732516423	4
1	264	1085.656004803948	3
1	275	1108.655655564124	4
1	276	1110.837446764275	3
1	279	1116.006790616162	2
1	282	1124.662596650631	1
1	285	1133.4722473246	0
1	329	1277.238823344948	1
1	330	1283.42876680388	0
1	650	2549.886391900443	1
1	654	2566.054484098915	0
1	719	2825.019956211528	1
1	740	2898.044480212832	2
1	749	2930.522222277123	3
1	752	2936.817953989825	4
1	761	2957.36295366006	5
1	767	2982.710578458948	6
1	797	3029.258593632945	7
1	800	3038.091623897704	8
1	806	3064.66565116728	9
1	810	3096.384215331752	8
1	815	3097.868421150125	9
1	821	3115.359244117079	10
1	825	3146.935427197902	9
1	828	3152.299233259988	8
1	831	3156.249941572105	7
1	842	3160.023701970763	8
1	843	3172.476366753212	7
1	846	3195.706029791427	6
1	849	3199.356376003858	5
1	852	3204.372066349461	4
1	857	3232.674938415641	5
1	864	3286.634949183855	4
1	867	3286.876515044017	3
1	876	3336.059171078826	2
1	879	3336.473491274557	1
1	890	3368.985221221182	2
1	891	3390.386675730465	1
1	894	3391.099635008993	0
1	929	3496.096642530529	1
1	932	3499.107570557141	2
1	933	3547.767031261981	1
1	942	3583.86673082467	0
1	1121	4313.985037567459	1
1	1122	4320.347680287392	0
1	1427	5493.505589728317	1
1	1428	5497.319596535612	0
1	1439	5529.583731035027	1
1	1440	5531.344376025075	0
1	1445	5542.879901897031	1
1	1446	5544.124432632056	0
1	1457	5561.069567422384	1
1	1458	5584.305667816951	0
1	1475	5635.334179953155	1
1	1481	5640.969905298443	2
1	1487	5655.191394671697	3
1	1488	5669.800809550145	2
1	1491	5681.097274846187	1
1	1494	5686.201703207768	0
1	1544	5801.017021501408	1
1	1554	5846.603815001723	0
1	1607	6047.9633301329	1
1	1610	6087.275846252091	2
1	1623	6163.503817752036	1
1	1632	6176.38463151793	0
1	1895	7237.782568794181	1
1	1916	7276.602135369372	2
1	1923	7326.588056402554	1
1	1926	7340.153351050126	0
1	1931	7345.592917946799	1
1	1932	7360.115462554376	0
1	1961	7447.308367358163	1
1	1974	7494.921497515904	0
1	2012	7556.297236542346	1
1	2015	7558.944243413088	2
1	2019	7568.352356198522	1
1	2025	7571.496739863648	0
1	2039	7631.786065504827	1
1	2048	7670.659514346231	2
1	2064	7717.169140070472	1
1	2108	7856.538426463712	2
1	2148	7984.089882734968	1
1	2151	8014.670854153812	0
1	2162	8038.242536857413	1
1	2169	8050.719755179562	0
1	2201	8174.186976023729	1
1	2220	8221.165861194947	0
1	2285	8447.812957946693	1
1	2286	8473.004239033978	0
1	2291	8506.047926031632	1
1	2292	8508.278678695314	0
1	2399	8834.287545678315	1
1	2408	8849.989560341075	2
1	2411	8851.940327754442	3
1	2412	8859.451787233133	2
1	2415	8865.916457104635	1
1	2424	8876.388362571566	0
1	2432	8894.797688910913	1
1	2438	8911.633546988062	2
1	2447	8926.130694353748	3
1	2448	8931.235997865931	2
1	2451	8939.145140712789	1
1	2454	8940.978505130337	0
1	2531	9209.273859136397	1
1	2532	9210.406777818608	0
1	2537	9213.510855251364	1
1	2546	9280.249285641273	2
1	2549	9296.631194934857	3
1	2556	9323.968212111822	2
1	2567	9354.917326860317	3
1	2568	9361.355888355521	2
1	2571	9376.649046011804	1
1	2574	9378.734276809422	0
1	2600	9495.140071352471	1
1	2610	9535.055473705216	0
1	2747	10022.187900244318	1
1	2748	10029.138811815816	0
1	2756	10062.848539785227	1
1	2765	10083.907112515909	2
1	2771	10109.059674127591	3
1	2772	10128.174559583772	2
1	2775	10129.880579279196	1
1	2783	10186.831974153879	2
1	2786	10199.884438797875	3
1	2795	10258.181146415076	4
1	2801	10300.708216058433	5
1	2810	10325.585102533185	6
1	2811	10325.717569976493	5
1	2814	10333.356987419758	4
1	2831	10395.333428526309	5
1	2832	10415.026892153428	4
1	2835	10417.238123678029	3
1	2838	10445.238013272561	2
1	2841	10462.993262771065	1
1	2846	10466.944861337411	2
1	2849	10476.531856052014	3
1	2852	10510.94502901113	4
1	2853	10515.727214078969	3
1	2856	10520.890392649454	2
1	2859	10537.24514888284	1
1	2867	10542.288385472041	2
1	2870	10548.401361006939	3
1	2876	10576.390723486262	4
1	2883	10587.622110873003	3
1	2886	10595.632210276229	2
1	2889	10609.640485096936	1
1	2892	10639.021729537585	0
1	2909	10707.324377350132	1
1	2912	10721.403612716991	2
1	2918	10751.686068372825	3
1	2922	10771.67281042577	2
1	2933	10798.268001144257	3
1	2964	10921.035596006367	2
1	2987	11001.793687102475	3
1	2994	11026.835360870473	2
1	2997	11035.696784312461	1
1	3000	11047.350673467678	0
1	3128	11527.134032150888	1
1	3140	11557.339206313384	2
1	3149	11581.669007074594	3
1	3152	11582.164792156006	4
1	3155	11601.142994272938	5
1	3198	11742.207058182119	4
1	3201	11747.584990977369	3
1	3218	11802.367836921978	4
1	3222	11815.156668246669	3
1	3225	11820.156561917504	2
1	3228	11822.150089599512	1
1	3231	11846.758117757497	0
1	3260	11993.225469077027	1
1	3264	11996.943791176748	0
1	3269	11999.158972375582	1
1	3306	12170.40513322354	0
1	3377	12426.438402689628	1
1	3380	12433.596152037052	2
1	3383	12435.724698113363	3
1	3386	12442.251435003326	4
1	3389	12453.392978419946	5
1	3398	12475.462613436545	6
1	3423	12583.4969666981	5
1	3432	12605.213934337823	4
1	3437	12651.755445664312	5
1	3438	12655.762687429477	4
1	3443	12660.900424728404	5
1	3444	12676.985958691088	4
1	3452	12684.617641424702	5
1	3455	12689.232710420102	6
1	3464	12715.235810203586	7
1	3467	12731.72055532823	8
1	3471	12777.584123236442	7
1	3497	12853.971816115631	8
1	3500	12887.061163424009	9
1	3516	12925.716876831889	8
1	3545	13019.498017420326	9
1	3548	13019.799799123153	10
1	3573	13100.506561952386	9
1	3582	13136.624211990286	8
1	3609	13217.690737044562	7
1	3612	13224.873306340171	6
1	3615	13229.075015982443	5
1	3620	13245.341193043801	6
1	3629	13269.219826560418	7
1	3644	13321.327163813753	8
1	3653	13345.725888812965	9
1	3686	13445.740618170132	10
1	3687	13475.485559384836	9
1	3690	13482.239017474979	8
1	3695	13504.608237755582	9
1	3698	13522.599612904911	10
1	3699	13577.548139067641	9
1	3702	13578.88162008631	8
1	3705	13581.782503037429	7
1	3708	13597.612894819083	6
1	3746	13739.470224631211	7
1	3755	13772.305738629556	8
1	3791	13891.123561712192	9
1	3807	13957.13604478336	8
1	3810	13966.843660029383	7
1	3821	14055.061952004937	8
1	3830	14068.846572529112	9
1	3839	14135.835095476085	10
1	3855	14192.045306975069	9
1	3858	14211.526434685454	8
1	3861	14213.51208783885	7
1	3870	14222.144884861834	6
1	3881	14268.670014230292	7
1	3882	14291.506001991513	6
1	3885	14298.244022844404	5
1	3888	14300.318740777174	4
1	3894	14316.296709764247	3
1	3897	14366.895106734985	2
1	3908	14400.27022125446	3
1	3927	14471.501699637618	2
1	3930	14476.345548542672	1
1	3933	14485.301350449126	0
1	3983	14627.058385894376	1
1	3992	14654.295651757831	2
1	3995	14658.507383127965	3
1	4007	14715.450907652749	4
1	4011	14737.230897877335	3
1	4014	14743.205497778635	2
1	4028	14780.069562367798	3
1	4037	14810.186278410874	4
1	4043	14829.332466665983	5
1	4064	14901.919986169121	6
1	4076	14955.986817121928	7
1	4097	15014.408633048536	8
1	4098	15017.44396114183	7
1	4101	15027.264914215204	6
1	4104	15027.761526287051	5
1	4107	15029.399824624225	4
1	4110	15029.619734335775	3
1	4113	15059.618753398095	2
1	4116	15065.433856401136	1
1	4125	15093.319178226889	0
1	4142	15143.127773311395	1
1	4148	15185.474850486219	2
1	4202	15292.78002523874	3
1	4205	15296.715666165519	4
1	4208	15311.324403677769	5
1	4248	15404.533634375664	4
1	4253	15423.836385734037	5
1	4262	15456.129092797556	6
1	4277	15481.064580556402	7
1	4278	15487.104929801645	6
1	4283	15509.574211364093	7
1	4292	15519.71388736606	8
1	4325	15650.817113313854	9
1	4326	15691.569838262743	8
1	4331	15701.088095412505	9
1	4332	15706.756612701589	8
1	4335	15724.493464620328	7
1	4340	15736.388017947607	8
1	4341	15755.921186663812	7
1	4346	15763.777285368962	8
1	4352	15790.108789280452	9
1	4361	15807.643821287288	10
1	4367	15820.623570071151	11
1	4382	15862.479777437248	12
1	4385	15869.72170719189	13
1	4394	15898.920421888237	14
1	4397	15901.700779464002	15
1	4412	15952.77084888595	16
1	4413	15953.43585499706	15
1	4418	15964.180648826453	16
1	4419	15986.98980584287	15
1	4422	15992.514958687098	14
1	4427	16019.221856939463	15
1	4434	16041.174052437821	14
1	4437	16050.088798100325	13
1	4440	16063.620605495216	12
1	4445	16086.473782967809	13
1	4454	16109.561321257094	14
1	4460	16130.281925382676	15
1	4464	16147.085850436231	14
1	4467	16167.088948333902	13
1	4472	16176.531036981106	14
1	4478	16219.193328767826	15
1	4484	16237.225068427857	16
1	4520	16358.956537285154	17
1	4524	16365.542738820575	16
1	4527	16387.696132578595	15
1	4530	16387.871464276397	14
1	4535	16394.53478512037	15
1	4536	16435.610133615238	14
1	4544	16443.734260091055	15
1	4548	16471.297816648253	14
1	4569	16563.805763391066	13
1	4572	16564.007777899533	12
1	4575	16577.421049322787	11
1	4578	16607.228745419884	10
1	4583	16611.986984479733	11
1	4595	16656.883162955287	12
1	4599	16685.413522807988	11
1	4619	16736.501155293482	12
1	4625	16749.848449846591	13
1	4632	16767.760412995518	12
1	4637	16794.318522009994	13
1	4638	16813.397515622077	12
1	4653	16863.115607998363	11
1	4670	17008.249896588113	12
1	4679	17029.285982488065	13
1	4685	17031.446255841647	14
1	4689	17040.598257511559	13
1	4692	17042.20231056543	12
1	4703	17061.747151955817	13
1	4709	17081.130486023552	14
1	4713	17086.005901610147	13
1	4722	17139.979114717963	12
1	4725	17175.37209771781	11
1	4728	17176.473848293966	10
1	4731	17201.349590813791	9
1	4734	17210.706989596207	8
1	4742	17239.935837149405	9
1	4748	17256.652200888091	10
1	4766	17294.959686756413	11
1	4778	17325.395792512692	12
1	4800	17410.237632437335	11
1	4805	17421.524674711464	12
1	4806	17443.199830618585	11
1	4809	17458.115129212893	10
1	4817	17483.094767056651	11
1	4838	17547.087634613257	12
1	4841	17554.004997071813	13
1	4844	17558.927673052861	14
1	4850	17572.778569500955	15
1	4851	17574.269914765707	14
1	4856	17584.503671803564	15
1	4865	17614.424811710084	16
1	4872	17649.954632539356	15
1	4875	17649.99959414997	14
1	4907	17689.561298217803	15
1	4913	17694.919774305604	16
1	4925	17748.388771285814	17
1	4931	17758.309776790173	18
1	4932	17773.32049918115	17
1	4940	17782.597819221009	18
1	4943	17789.726934933762	19
1	4953	17826.626536694635	18
1	4958	17852.866672970869	19
1	4959	17856.756871402	18
1	4962	17861.05677624829	17
1	4965	17867.481491001676	16
1	4968	17888.660295218285	15
1	4983	17912.542405754937	14
1	4992	17932.238487312215	13
1	4995	17938.313974724705	12
1	5000	17949.783894332094	13
1	5006	17960.797616264945	14
1	5012	17967.375090152098	15
1	5027	18065.982278049411	16
1	5052	18159.039278595695	15
1	5063	18197.525720717893	16
1	5064	18229.250966851388	15
1	5067	18231.374310440239	14
1	5070	18243.266210245891	13
1	5073	18248.254939679183	12
1	5076	18301.399404860273	11
1	5079	18303.238572699904	10
1	5087	18316.895009021778	11
1	5091	18328.745043368426	10
1	5094	18337.461871579818	9
1	5097	18346.622936731237	8
1	5124	18412.090716668834	7
1	5127	18416.599945756086	6
1	5132	18442.443385211027	7
1	5133	18448.319750582634	6
1	5136	18450.138694537895	5
1	5139	18452.727214530575	4
1	5144	18466.510867009056	5
1	5145	18490.790859863467	4
1	5201	18658.037536251334	5
1	5207	18671.275840396842	6
1	5237	18763.587602955388	7
1	5240	18775.791783342946	8
1	5243	18795.649151288969	9
1	5252	18838.325164255671	10
1	5262	18901.156587809606	9
1	5265	18902.952489856295	8
1	5273	18925.928643739582	9
1	5277	18934.061521671782	8
1	5292	19020.778803971757	7
1	5324	19118.318551646775	8
1	5336	19158.310301118226	9
1	5343	19174.56842139967	8
1	5348	19215.622923001835	9
1	5354	19246.887214497007	10
1	5358	19270.971867428992	9
1	5361	19292.200093448994	8
1	5382	19332.387140422449	7
1	5385	19336.95096019118	6
1	5388	19338.856669493368	5
1	5396	19343.4661886849	6
1	5400	19359.918741037097	5
1	5405	19367.082465156126	6
1	5406	19383.195497766454	5
1	5409	19391.452316833398	4
1	5412	19417.062430335449	3
1	5415	19419.58242479802	2
1	5418	19433.823863776775	1
1	5429	19441.958302080129	2
1	5430	19446.881984267985	1
1	5435	19447.261743666525	2
1	5436	19457.891550437418	1
1	5445	19473.710473419807	0
1	5450	19475.59412227717	1
1	5451	19488.567570241329	0
1	5459	19502.200772074659	1
1	5466	19548.005681455377	0
1	5504	19762.464079926085	1
1	5505	19780.08232531489	0
1	5885	21332.898115391702	1
1	5891	21363.875682693748	2
1	5894	21394.975235721785	3
1	5897	21395.685494374682	4
1	5900	21397.575172282602	5
1	5918	21420.185442580645	6
1	5948	21497.617941471562	7
1	5961	21545.86826921033	6
1	5964	21547.807020952193	5
1	5969	21563.189263218929	6
1	5970	21590.581858682268	5
1	5987	21718.1260941031	6
1	5990	21729.539825138091	7
1	6006	21746.120908571862	6
1	6017	21772.119876485373	7
1	6038	21817.135020787045	8
1	6041	21818.36303343468	9
1	6042	21826.803365760131	8
1	6057	21850.353119663279	7
1	6071	21887.91522380607	8
1	6075	21909.274203307992	7
1	6080	21926.98174965294	8
1	6087	21958.559289372267	7
1	6092	21983.177973020679	8
1	6093	21986.440191362259	7
1	6105	22037.100931823451	6
1	6114	22045.546658181616	5
1	6117	22065.370771677526	4
1	6126	22119.486008457986	3
1	6129	22129.799592518435	2
1	6132	22134.690989604328	1
1	6135	22154.230678672993	0
1	6140	22155.261439991406	1
1	6143	22159.351737137775	2
1	6146	22163.732851870517	3
1	6147	22174.065706625391	2
1	6150	22176.418485565488	1
1	6153	22189.633197487064	0
1	6185	22330.757991187873	1
1	6186	22364.49557302082	0
1	6221	22453.664048449553	1
1	6222	22457.277362752605	0
1	6254	22509.124034598421	1
1	6266	22527.031289139079	2
1	6275	22565.37913081827	3
1	6296	22630.933099476083	4
1	6303	22674.52580521482	3
1	6306	22688.391879413963	2
1	6309	22698.298807522107	1
1	6312	22708.013633539028	0
1	6320	22721.790668176805	1
1	6330	22749.655940337061	0
1	6461	23143.819037125453	1
1	6462	23181.127046236446	0
1	6527	23510.551068380256	1
1	6528	23525.668738380112	0
1	6569	23675.288185181869	1
1	6572	23685.646929679609	2
1	6573	23708.979271911155	1
1	6584	23787.791515209935	2
1	6585	23795.787050206153	1
1	6588	23829.156001173739	0
1	6596	23876.513386419866	1
1	6599	23880.478171006797	2
1	6605	23929.894836696832	3
1	6606	23953.521078511134	2
1	6609	23954.927384146902	1
1	6612	23955.250345030659	0
1	6617	23965.463366945084	1
1	6653	24096.467504347409	2
1	6693	24275.823243520155	1
1	6696	24280.780029223863	0
1	6710	24322.758783546949	1
1	6720	24367.534485890257	0
1	6800	24641.567889028204	1
1	6804	24656.815223913063	0
1	6809	24670.457984926476	1
1	6810	24670.659337618902	0
1	6848	24749.176448767686	1
1	6852	24759.575205281584	0
1	6878	24820.259682880104	1
1	6890	24913.681252568641	2
1	6902	24935.756173091818	3
1	6905	24942.124842619737	4
1	6908	24942.433937094389	5
1	6909	24956.552198748831	4
1	6912	24973.428108071559	3
1	6923	25000.728103599637	4
1	6926	25008.072108705923	5
1	6927	25023.352400019515	4
1	6932	25040.269651326937	5
1	6933	25040.464485905587	4
1	6936	25051.825639094202	3
1	6977	25169.736870997946	4
1	6983	25209.200642445142	5
1	6989	25218.782738317374	6
1	7007	25274.437507071242	7
1	7008	25279.948381295155	6
1	7029	25395.434950493332	5
1	7032	25415.729973477809	4
1	7037	25430.423831599404	5
1	7038	25442.804391645702	4
1	7046	25449.410384825309	5
1	7055	25512.78275059132	6
1	7076	25600.446488546456	7
1	7082	25661.259037162073	8
1	7101	25758.806066267468	7
1	7115	25813.843010799097	8
1	7118	25813.84652396321	9
1	7127	25841.562675947626	10
1	7142	25906.37513564576	11
1	7146	25907.048633683992	10
1	7151	25907.515088362101	11
1	7152	25927.202412313827	10
1	7157	25928.310790269252	11
1	7158	25939.309292317016	10
1	7173	26001.521695438909	9
1	7178	26010.093359132057	10
1	7193	26071.48228801938	11
1	7208	26138.44591224653	12
1	7227	26218.459402387592	11
1	7230	26222.33077848346	10
1	7241	26232.105866326521	11
1	7260	26303.197633000804	10
1	7263	26309.620846584616	9
1	7268	26320.794955913842	10
1	7269	26333.298330856828	9
1	7272	26343.505880307231	8
1	7281	26351.015741692578	7
1	7284	26351.30006719737	6
1	7292	26369.434840749976	7
1	7295	26376.757997921094	8
1	7304	26404.539797361376	9
1	7307	26420.806920334189	10
1	7310	26438.317140506978	11
1	7316	26473.86423709029	12
1	7335	26530.753234985486	11
1	7340	26556.01360006184	12
1	7343	26562.430531910034	13
1	7355	26581.34929989913	14
1	7373	26651.458939445032	15
1	7379	26679.954299730707	16
1	7400	26727.004369203803	17
1	7406	26737.763475554138	18
1	7454	26932.360694404036	19
1	7461	26967.846096397084	18
1	7464	26978.801158989591	17
1	7475	27022.305451752059	18
1	7476	27072.473544724649	17
1	7481	27102.641301422551	18
1	7484	27104.662372126515	19
1	7485	27110.865700556099	18
1	7490	27112.005368199957	19
1	7491	27126.943962872458	18
1	7500	27137.649834040257	17
1	7505	27143.353984937398	18
1	7506	27146.451295759317	17
1	7509	27153.606645873793	16
1	7514	27161.284774908724	17
1	7517	27178.700091511057	18
1	7518	27183.657209486505	17
1	7529	27191.213220798932	18
1	7533	27218.200812464886	17
1	7538	27231.418240310636	18
1	7539	27233.462910169762	17
1	7542	27238.224979009953	16
1	7545	27277.248696308121	15
1	7553	27411.341813612816	16
1	7574	27471.151076094705	17
1	7577	27503.753645285162	18
1	7607	27651.784195757514	19
1	7622	27707.912247968625	20
1	7643	27801.491704523288	21
1	7652	27819.502772088225	22
1	7655	27825.763180428212	23
1	7667	27873.9932328402	24
1	7670	27887.300029089269	25
1	7676	27896.030613704742	26
1	7682	27919.309955558397	27
1	7688	27922.349294689031	28
1	7691	27945.68694094333	29
1	7694	27982.509191370143	30
1	7706	28004.905452045502	31
1	7739	28113.094287809306	32
1	7746	28156.069899857635	31
1	7749	28166.141587197131	30
1	7752	28170.925023015303	29
1	7755	28178.806130710607	28
1	7758	28193.387362035659	27
1	7761	28199.479688210723	26
1	7766	28213.715128533743	27
1	7767	28216.431003104164	26
1	7772	28246.865339034902	27
1	7773	28258.03760469846	26
1	7776	28259.764306479451	25
1	7779	28272.293917505586	24
1	7782	28279.311681454783	23
1	7785	28323.637760824934	22
1	7794	28336.627894880826	21
1	7797	28337.615933333914	20
1	7802	28338.909873216879	21
1	7809	28372.727521885877	20
1	7812	28378.932254055078	19
1	7815	28386.458618086235	18
1	7818	28390.626835462925	17
1	7838	28464.031908404356	18
1	7856	28564.106965837428	19
1	7880	28761.217319082963	20
1	7883	28763.411833867037	21
1	7889	28767.986930882459	22
1	7890	28773.856716659912	21
1	7899	28828.990080798906	20
1	7902	28831.655787037141	19
1	7905	28854.297867568394	18
1	7914	28909.019175433346	17
1	7917	28923.537010432847	16
1	7920	28936.695368742758	15
1	7923	28945.945796501563	14
1	7926	28949.192065753239	13
1	7929	28955.434890139102	12
1	7932	28970.482527876934	11
1	7935	28974.047489501124	10
1	7946	29007.936550757149	11
1	7977	29120.049796463688	10
1	7992	29190.293132168323	9
1	7995	29229.450899876643	8
1	8003	29242.396317419041	9
1	8006	29243.988510084003	10
1	8016	29290.28797765652	9
1	8019	29297.742339703014	8
1	8022	29312.970814672708	7
1	8027	29314.43877697113	8
1	8028	29319.304326355629	7
1	8031	29324.798193657922	6
1	8042	29374.749797502744	7
1	8046	29395.649135147172	6
1	8049	29403.729628640418	5
1	8054	29405.725307236022	6
1	8061	29408.159225612334	5
1	8064	29409.849934656143	4
1	8067	29412.767006375022	3
1	8070	29421.248791809923	2
1	8073	29424.719494143608	1
1	8078	29426.073069659967	2
1	8087	29476.056256820467	3
1	8102	29512.788421039866	4
1	8103	29535.182290632781	3
1	8112	29547.424087592779	2
1	8115	29549.863236944706	1
1	8118	29556.539417962954	0
1	8141	29597.176288523421	1
1	8142	29611.897198950516	0
1	8159	29723.186656640846	1
1	8160	29725.670526303096	0
1	8381	30467.37368082937	1
1	8382	30469.080646558401	0
1	8651	31585.996778394471	1
1	8652	31591.692303282467	0
1	8663	31632.739104499516	1
1	8672	31654.7394537895	2
1	8673	31657.491346371474	1
1	8676	31663.256064055338	0
1	8711	31822.745467917279	1
1	8714	31842.343054619742	2
1	8739	31966.197199963737	1
1	8762	32080.166352368571	2
1	8763	32102.972140559224	1
1	8766	32103.764282468776	0
1	8801	32198.998942529781	1
1	8810	32227.930438093081	2
1	8825	32269.871764284675	3
1	8831	32281.165564061248	4
1	8834	32294.0991243754	5
1	8840	32297.559039099531	6
1	8846	32317.537040848883	7
1	8849	32319.78670258448	8
1	8864	32393.230387203469	9
1	8906	32586.359899152634	10
1	8910	32592.123929797291	9
1	8915	32612.195014412486	10
1	8916	32648.436412727623	9
1	8919	32671.054230213426	8
1	8930	32685.917159155743	9
1	8933	32698.399006519325	10
1	8942	32706.190729868336	11
1	8945	32708.7014095764	12
1	8946	32709.075501989558	11
1	8951	32718.09330008213	12
1	8952	32720.505553114405	11
1	8969	32787.834068946528	12
1	8976	32816.170037236857	11
1	8981	32816.584547498481	12
1	8982	32819.056576840412	11
1	8987	32823.655025674297	12
1	8990	32825.606939771703	13
1	8997	32844.412452922871	12
1	9000	32864.664782300424	11
1	9003	32871.884325413789	10
1	9020	32918.399912149451	11
1	9023	32931.196175211188	12
1	9038	32983.050190625945	13
1	9039	32983.248485157288	12
1	9048	33010.524202089851	11
1	9059	33068.780367088597	12
1	9065	33076.44541416824	13
1	9075	33147.875115811908	12
1	9078	33152.532144980864	11
1	9081	33165.845165314768	10
1	9086	33190.365956776416	11
1	9087	33205.113207267543	10
1	9093	33230.123153355189	9
1	9101	33237.449799520702	10
1	9104	33256.02494574699	11
1	9128	33394.567813203579	12
1	9152	33543.396813251769	13
1	9155	33547.845033759522	14
1	9173	33635.202740292634	15
1	9182	33663.148302916012	16
1	9206	33756.456691141411	17
1	9209	33765.099092391348	18
1	9215	33787.41803866582	19
1	9221	33793.969246630933	20
1	9236	33829.372294017057	21
1	9242	33880.560739380107	22
1	9251	33905.427164927008	23
1	9257	33914.716254874982	24
1	9263	33981.00585993815	25
1	9266	34005.280299028301	26
1	9284	34114.281463139275	27
1	9300	34216.198815937467	26
1	9305	34220.803983450603	27
1	9306	34223.188594139335	26
1	9309	34223.202760982469	25
1	9314	34229.177141131401	26
1	9315	34247.36642185647	25
1	9318	34275.552241252899	24
1	9323	34288.523946724777	25
1	9324	34288.80958817274	24
1	9327	34294.011214351697	23
1	9330	34302.373771016106	22
1	9333	34306.63960329178	21
1	9336	34312.159897086523	20
1	9339	34317.167939128522	19
1	9347	34328.330865618364	20
1	9365	34361.535496080253	21
1	9374	34425.140034301884	22
1	9375	34443.614781080146	21
1	9383	34476.983971643556	22
1	9392	34503.428370601203	23
1	9398	34526.565570415544	24
1	9401	34527.71908064232	25
1	9413	34573.642439246982	26
1	9416	34575.961940658699	27
1	9426	34589.338254208572	26
1	9435	34602.825014795662	25
1	9438	34612.147725417583	24
1	9456	34639.284040375506	23
1	9459	34642.364071502354	22
1	9464	34654.146890448364	23
1	9465	34663.657198180649	22
1	9468	34667.825117340494	21
1	9471	34675.786663202976	20
1	9476	34705.397029869294	21
1	9479	34707.419369352189	22
1	9482	34728.219358831435	23
1	9483	34741.521740426588	22
1	9486	34747.853819266363	21
1	9489	34755.120273175579	20
1	9498	34788.092553186457	19
1	9501	34793.690539225287	18
1	9504	34805.835727259509	17
1	9578	35106.388968620968	18
1	9591	35162.514384076215	17
1	9594	35192.998235834278	16
1	9597	35198.147802705279	15
1	9600	35201.446285251782	14
1	9603	35211.307529126685	13
1	9606	35214.946838737015	12
1	9609	35217.176861296052	11
1	9618	35239.27835852917	10
1	9621	35252.929392853069	9
1	9624	35257.605693331721	8
1	9656	35377.397456862225	9
1	9659	35380.5883620787	10
1	9662	35380.874958330431	11
1	9665	35392.499981238261	12
1	9668	35402.838264663274	13
1	9671	35409.742362962509	14
1	9692	35478.962624371948	15
1	9710	35536.544860872247	16
1	9711	35554.098550462763	15
1	9717	35580.846292074038	14
1	9726	35599.66438664524	13
1	9729	35607.149057372661	12
1	9732	35633.997879836447	11
1	9747	35746.404063123442	10
1	9779	35798.584912962019	11
1	9795	35847.208658344736	10
1	9798	35861.846886429555	9
1	9801	35865.340022105698	8
1	9804	35901.806048548783	7
1	9807	35923.779968687817	6
1	9810	35936.776219378564	5
1	9821	35976.625400242717	6
1	9827	35983.400497201289	7
1	9849	36082.289845318459	6
1	9852	36086.228215845747	5
1	9861	36102.180320886081	4
1	9864	36126.62363942541	3
1	9867	36166.982630564299	2
1	9870	36183.551281038706	1
1	9873	36183.83978570969	0
1	9878	36184.298351798521	1
1	9879	36189.76257745751	0
2	0	0	0
2	167	724.16681128619	1
2	170	729.679451927353	2
2	174	749.916909149952	1
2	182	761.877338951301	2
2	186	787.372218631355	1
2	192	858.987351286962	0
2	197	859.726449674742	1
2	198	874.704627593629	0
2	203	892.009265513631	1
2	207	926.676651208433	0
2	224	971.105201611239	1
2	225	985.490342097299	0
2	236	1008.865514764604	1
2	239	1013.558490171172	2
2	243	1042.095452753006	1
2	246	1043.675850621087	0
2	254	1060.785941624066	1
2	255	1062.522455230648	0
2	269	1089.496486604007	1
2	270	1104.749130216187	0
2	323	1252.162467326512	1
2	324	1258.024329013077	0
2	647	2545.927104699059	1
2	651	2560.459588080321	0
2	665	2596.961813913577	1
2	666	2603.317644732398	0
2	707	2773.985308735791	1
2	710	2795.88486881876	2
2	713	2796.543781384593	3
2	716	2818.138123716041	4
2	722	2830.341649055614	5
2	723	2858.830433521307	4
2	728	2867.038535809905	5
2	731	2878.68692304964	6
2	732	2891.340367122129	5
2	737	2895.13053639368	6
2	741	2916.454208582307	5
2	744	2923.844708719085	4
2	755	2942.15182941593	5
2	758	2945.447203071543	6
2	764	2974.139411139632	7
2	768	2983.530493540091	6
2	771	2983.675613861152	5
2	774	2991.052629612592	4
2	777	2997.3239877474	3
2	780	2997.733218806317	2
2	783	2998.432638612655	1
2	788	3004.526199802019	2
2	789	3018.778189919199	1
2	794	3023.722956840126	2
2	801	3054.330442627348	1
2	807	3088.044030460343	0
2	818	3100.856512591671	1
2	822	3121.561684355035	0
2	836	3156.647030241182	1
2	837	3157.543106485927	0
2	860	3242.302622664013	1
2	861	3270.900671988215	0
2	872	3311.183522445524	1
2	873	3334.557264889372	0
2	884	3343.686380858885	1
2	885	3359.515760568512	0
2	899	3407.739963002811	1
2	900	3409.580630263128	0
2	905	3412.866857349401	1
2	908	3414.015608058166	2
2	911	3416.452571124804	3
2	912	3426.305487004268	2
2	915	3431.687407965471	1
2	918	3432.82950263724	0
2	938	3554.147363644162	1
2	939	3578.652783133069	0
2	1391	5378.897252852141	1
2	1392	5381.616677609481	0
2	1421	5484.152269582785	1
2	1422	5487.077268247547	0
2	1463	5587.997203018893	1
2	1466	5589.04869693195	2
2	1467	5595.655917653066	1
2	1470	5608.808799198862	0
2	1478	5638.333559330489	1
2	1482	5650.400075488541	0
2	1511	5727.475968151472	1
2	1512	5733.951976765116	0
2	1529	5741.18706585893	1
2	1530	5745.781893263453	0
2	1535	5768.76586061468	1
2	1538	5769.081483443532	2
2	1539	5778.861178265479	1
2	1547	5806.767415086808	2
2	1548	5819.305615475966	1
2	1551	5839.838053441082	0
2	1577	5948.070432335955	1
2	1578	5955.309576639356	0
2	1601	6029.762463195521	1
2	1602	6047.148100560978	0
2	1613	6101.532681524535	1
2	1614	6117.445160757717	0
2	1619	6144.278739373935	1
2	1620	6160.510896579852	0
2	1628	6166.917383919592	1
2	1629	6175.07271932171	0
2	1715	6584.121889643063	1
2	1716	6595.634949877844	0
2	1721	6601.554187492472	1
2	1724	6605.925915559864	2
2	1727	6614.56230242377	3
2	1728	6644.508353545998	2
2	1734	6647.187879296388	1
2	1737	6658.628787536013	0
2	1781	6811.491285881007	1
2	1782	6814.939327987519	0
2	1799	6875.61986144172	1
2	1800	6882.166174583193	0
2	1898	7240.842384380448	1
2	1899	7245.660186528106	0
2	1904	7251.177417394229	1
2	1905	7262.739664378487	0
2	1910	7271.885608875232	1
2	1911	7272.832578180215	0
2	1919	7310.976816058725	1
2	1920	7314.441864420475	0
2	1943	7400.289727049816	1
2	1946	7403.361193348593	2
2	1949	7405.351141912774	3
2	1950	7413.649944548249	2
2	1955	7442.03465680176	3
2	1956	7442.256088639778	2
2	1964	7449.902969848236	3
2	1965	7451.470636492783	2
2	1968	7456.257805705374	1
2	1971	7461.744809492143	0
2	1985	7500.985004834402	1
2	1988	7501.316008751981	2
2	1989	7502.83880495136	1
2	1994	7512.147859579869	2
2	1995	7512.619748075725	1
2	2000	7527.903120516229	2
2	2003	7535.365037986619	3
2	2004	7536.577643917201	2
2	2007	7542.490644595761	1
2	2016	7560.106125220655	0
2	2045	7659.586122242848	1
2	2051	7677.789870180025	2
2	2054	7684.293935740573	3
2	2055	7687.313249795422	2
2	2058	7702.371977043477	1
2	2061	7707.774812132605	0
2	2069	7719.560268940068	1
2	2070	7737.332213371428	0
2	2075	7747.198813220376	1
2	2078	7753.1214486731	2
2	2081	7779.242062296593	3
2	2084	7784.52177220376	4
2	2085	7789.720469552487	3
2	2090	7823.410815093799	4
2	2091	7832.042843851656	3
2	2096	7834.46662469041	4
2	2099	7839.157034576009	5
2	2100	7845.757206369988	4
2	2105	7852.554992022206	5
2	2111	7857.961400593388	6
2	2112	7861.831277868771	5
2	2117	7863.884156957213	6
2	2120	7868.596108885598	7
2	2121	7880.356548086325	6
2	2124	7904.389439862888	5
2	2127	7921.527481553914	4
2	2130	7944.838278506493	3
2	2133	7946.984387774016	2
2	2138	7948.266266508749	3
2	2139	7948.490298017324	2
2	2142	7952.370639664626	1
2	2145	7961.311242672553	0
2	2156	8020.938603982938	1
2	2157	8030.533153602577	0
2	2165	8038.251488536393	1
2	2166	8040.752684609648	0
2	2174	8057.143891583773	1
2	2175	8062.132548838494	0
2	2189	8140.863960035177	1
2	2192	8141.796991449805	2
2	2193	8150.50306182778	1
2	2196	8153.492441106024	0
2	2204	8176.163142995177	1
2	2207	8182.112974634595	2
2	2210	8182.446665472132	3
2	2211	8195.746727800544	2
2	2214	8204.561969868208	1
2	2217	8220.567291689458	0
2	2249	8291.591840811946	1
2	2250	8314.159882283014	0
2	2255	8324.640211108053	1
2	2256	8329.520556367666	0
2	2402	8835.167499746396	1
2	2403	8849.47398627771	0
2	2420	8867.573666047442	1
2	2421	8867.705040646674	0
2	2429	8886.613950740688	1
2	2433	8905.364663347732	0
2	2441	8913.356959865005	1
2	2442	8918.92930120589	0
2	2459	8942.864263441181	1
2	2460	8945.955404850654	0
2	2465	8965.826363027045	1
2	2466	8988.971517534437	0
2	2540	9260.204763892286	1
2	2541	9271.316681148721	0
2	2552	9297.135676471634	1
2	2553	9298.984670842663	0
2	2561	9334.406223545953	1
2	2562	9345.007784895159	0
2	2585	9399.813334948672	1
2	2588	9445.382717655978	2
2	2591	9463.603276697521	3
2	2592	9468.273098581381	2
2	2597	9483.753628907367	3
2	2601	9497.843453088106	2
2	2604	9517.794531594575	1
2	2607	9519.044765320698	0
2	2735	9966.444194679044	1
2	2736	9987.225237561192	0
2	2753	10059.167384315182	1
2	2759	10071.112307887618	2
2	2760	10082.697340172848	1
2	2766	10098.83466794244	0
2	2780	10144.933987853661	1
2	2787	10210.408824144932	0
2	2792	10242.086449679407	1
2	2796	10274.320827652246	0
2	2804	10310.752322788862	1
2	2805	10315.472122632409	0
2	2819	10357.990512025108	1
2	2822	10362.797877858023	2
2	2823	10374.013094068173	1
2	2826	10391.947169873785	0
2	2864	10539.09227824114	1
2	2873	10570.597990651233	2
2	2877	10578.736651530578	1
2	2880	10582.213077393943	0
2	2897	10680.258737497597	1
2	2898	10683.396908047628	0
2	2903	10685.723558876891	1
2	2906	10695.901560976899	2
2	2913	10732.609753105513	1
2	2919	10771.092594016754	0
2	2927	10773.105704628386	1
2	2930	10783.946300274425	2
2	2936	10804.61098225439	3
2	2937	10806.085939333498	2
2	2940	10816.701265592511	1
2	2945	10822.076293105369	2
2	2946	10833.810636245518	1
2	2949	10879.838541841889	0
2	2954	10896.524281400346	1
2	2955	10901.950513558786	0
2	2960	10909.159217064494	1
2	2961	10920.98354815821	0
2	2969	10925.032604745646	1
2	2972	10925.946545808992	2
2	2973	10934.070091919288	1
2	2976	10935.075665444838	0
2	2981	10973.161573120476	1
2	2984	10986.754612384708	2
2	2988	11005.22059142499	1
2	2991	11018.538134488032	0
2	3011	11088.057430901052	1
2	3012	11089.066772844908	0
2	3113	11474.854628730724	1
2	3114	11485.047257131228	0
2	3119	11502.618780151555	1
2	3122	11517.853771076319	2
2	3125	11521.041454255056	3
2	3131	11544.793208461744	4
2	3132	11549.876330921758	3
2	3137	11550.464264237907	4
2	3141	11559.992538634961	3
2	3146	11569.309392333955	4
2	3158	11602.407458817918	5
2	3161	11610.411258279073	6
2	3162	11611.854729662428	5
2	3165	11644.694212523392	4
2	3170	11650.329642930083	5
2	3171	11662.39234465336	4
2	3174	11668.828141821629	3
2	3179	11679.593942985556	4
2	3180	11687.730956902826	3
2	3185	11705.927513775344	4
2	3186	11718.59724347999	3
2	3189	11737.743530392837	2
2	3192	11741.094532730283	1
2	3195	11741.803998364211	0
2	3206	11749.71578190509	1
2	3209	11780.903023000098	2
2	3210	11784.79462750914	1
2	3219	11803.026142907534	0
2	3239	11902.572081678564	1
2	3240	11928.017678813563	0
2	3251	11977.416282410685	1
2	3254	11978.42036399026	2
2	3255	11988.199996026907	1
2	3261	11994.254291702283	0
2	3272	12031.618686713976	1
2	3275	12056.570265592742	2
2	3278	12072.994068417694	3
2	3279	12085.552675151341	2
2	3282	12108.893910689158	1
2	3287	12113.251011453493	2
2	3290	12134.264792276253	3
2	3293	12143.052406732652	4
2	3294	12145.836079135453	3
2	3297	12148.055833149742	2
2	3300	12149.979928274941	1
2	3303	12157.231426699778	0
2	3311	12202.669642754052	1
2	3312	12208.804532254467	0
2	3365	12361.933529439654	1
2	3366	12362.903259322098	0
2	3371	12373.440527955444	1
2	3374	12374.934053915748	2
2	3392	12460.716647601812	3
2	3393	12466.422078792123	2
2	3401	12477.474525726287	3
2	3404	12505.603607128805	4
2	3407	12517.731959719701	5
2	3408	12532.537837076237	4
2	3411	12534.115095979238	3
2	3414	12538.267444863907	2
2	3417	12551.235949715015	1
2	3420	12582.764849925417	0
2	3428	12598.251985521786	1
2	3429	12604.42595397563	0
2	3449	12679.328907191634	1
2	3456	12695.233826352142	0
2	3461	12712.725005461554	1
2	3468	12760.970854820946	0
2	3476	12794.972752862944	1
2	3479	12797.074501916982	2
2	3480	12815.172937633353	1
2	3485	12821.860730443939	2
2	3486	12825.790294794466	1
2	3489	12841.075573223156	0
2	3494	12843.747373842914	1
2	3503	12889.532701653147	2
2	3504	12890.76245972724	1
2	3509	12896.594613384348	2
2	3510	12915.484979352183	1
2	3513	12924.831365310896	0
2	3521	12939.298463742647	1
2	3522	12940.585871006911	0
2	3527	12952.43926593213	1
2	3530	12952.544814063624	2
2	3531	12961.837867279663	1
2	3536	12967.835068573794	2
2	3539	12989.462586022245	3
2	3540	13011.622366037295	2
2	3549	13023.874249197844	1
2	3554	13025.067122708956	2
2	3557	13031.593691375293	3
2	3558	13054.326835196112	2
2	3561	13066.393537004569	1
2	3566	13068.66204131497	2
2	3567	13074.929257287787	1
2	3570	13088.250916566025	0
2	3578	13107.439873463732	1
2	3579	13115.086584376512	0
2	3587	13139.215607619596	1
2	3590	13156.76652508745	2
2	3591	13166.82847026339	1
2	3596	13168.125077911471	2
2	3599	13177.385019607533	3
2	3600	13185.249497847996	2
2	3603	13206.933445378092	1
2	3606	13208.981307981157	0
2	3623	13252.634745479717	1
2	3624	13267.148027254107	0
2	3632	13271.853425044303	1
2	3635	13276.723016274663	2
2	3638	13291.606157782513	3
2	3641	13295.067889609732	4
2	3647	13331.450694257083	5
2	3648	13335.671426982414	4
2	3654	13349.651593459391	3
2	3659	13367.369688059239	4
2	3660	13369.473648596912	3
2	3665	13384.894904759489	4
2	3668	13386.196723883752	5
2	3669	13397.52809336884	4
2	3672	13403.532020702779	3
2	3675	13408.170051251591	2
2	3678	13431.877169696096	1
2	3681	13439.847950876346	0
2	3713	13632.134651278906	1
2	3716	13636.230232383055	2
2	3717	13652.49558411464	1
2	3725	13676.967379569764	2
2	3728	13679.878486569537	3
2	3731	13685.311679104301	4
2	3732	13703.148947001825	3
2	3735	13729.733908716475	2
2	3740	13734.588622666474	3
2	3741	13738.746062179959	2
2	3749	13744.004658327625	3
2	3752	13754.271128446256	4
2	3758	13779.367777692903	5
2	3759	13781.268422488792	4
2	3762	13783.098783422549	3
2	3765	13792.048072280047	2
2	3768	13799.422766188017	1
2	3771	13805.231355076182	0
2	3776	13829.795673566096	1
2	3779	13833.643566867428	2
2	3780	13850.712727107129	1
2	3783	13862.536179112578	0
2	3788	13863.415286002514	1
2	3792	13894.728413668257	0
2	3797	13909.929122729279	1
2	3800	13911.762979247493	2
2	3801	13918.785264888738	1
2	3804	13933.695836407762	0
2	3815	14005.135542835126	1
2	3816	14025.449914152124	0
2	3824	14056.760093880627	1
2	3827	14062.19819713464	2
2	3836	14111.435165348927	3
2	3842	14147.792421333441	4
2	3843	14168.972265789293	3
2	3846	14171.459192734534	2
2	3849	14172.659505983574	1
2	3852	14176.65717190021	0
2	3866	14215.144901401639	1
2	3867	14216.853639684423	0
2	3875	14224.545482661073	1
2	3876	14258.590184393213	0
2	3902	14367.184615745219	1
2	3905	14387.950257690631	2
2	3909	14411.605542968202	1
2	3914	14412.092649442924	2
2	3915	14428.217473345584	1
2	3920	14430.831339685628	2
2	3921	14459.717328766167	1
2	3924	14468.119545430523	0
2	3938	14496.988015538984	1
2	3941	14514.57169105939	2
2	3942	14519.407217120019	1
2	3947	14523.691276230621	2
2	3950	14525.754202436566	3
2	3951	14561.735484409257	2
2	3956	14563.591572031364	3
2	3957	14569.129277846297	2
2	3962	14577.963024825643	3
2	3963	14580.272100345869	2
2	3966	14588.839420650355	1
2	3969	14606.397206320835	0
2	3977	14620.495279288039	1
2	3980	14621.250713456677	2
2	3984	14635.464396482692	1
2	3989	14640.467909041477	2
2	3996	14669.407770106318	1
2	4001	14677.308547443453	2
2	4002	14715.163228499385	1
2	4008	14729.227885829554	0
2	4019	14760.720946054562	1
2	4022	14773.644993120069	2
2	4025	14777.625374457221	3
2	4029	14789.993644824639	2
2	4032	14803.797141796095	1
2	4038	14825.449569639694	0
2	4046	14838.541621877368	1
2	4049	14839.575493665356	2
2	4052	14867.610932253431	3
2	4053	14871.110782056701	2
2	4056	14874.376497198487	1
2	4059	14898.213243768807	0
2	4067	14913.054258442405	1
2	4070	14916.083180997094	2
2	4071	14922.172372239647	1
2	4079	14957.384875088402	2
2	4082	14958.407690136597	3
2	4086	14984.587728675756	2
2	4089	14995.339753955929	1
2	4092	15007.810842946347	0
2	4121	15067.128087888384	1
2	4122	15080.82729285404	0
2	4133	15121.228964842045	1
2	4136	15136.150006861475	2
2	4139	15136.806482438025	3
2	4143	15150.67730015843	2
2	4149	15200.529517622344	1
2	4154	15200.934396070609	2
2	4155	15209.280368148821	1
2	4160	15216.81760577026	2
2	4163	15225.390354768968	3
2	4166	15237.877472463885	4
2	4169	15240.732113825018	5
2	4170	15242.486270259826	4
2	4173	15261.833668410495	3
2	4178	15266.933569892241	4
2	4179	15267.539487026385	3
2	4182	15271.126652408504	2
2	4187	15275.442181425944	3
2	4190	15276.30105956717	4
2	4191	15279.13558507206	3
2	4196	15286.770978616912	4
2	4199	15289.097900379942	5
2	4211	15313.613682130209	6
2	4212	15314.436246207627	5
2	4217	15329.295358568835	6
2	4220	15331.222610528203	7
2	4221	15342.398089101763	6
2	4224	15343.177270563297	5
2	4229	15359.111416276926	6
2	4230	15367.784706496524	5
2	4233	15370.693317527451	4
2	4236	15372.484468912167	3
2	4239	15379.722372396004	2
2	4242	15387.134216423707	1
2	4245	15393.763705804479	0
2	4256	15432.633184329578	1
2	4257	15440.911938613036	0
2	4265	15458.176445034366	1
2	4268	15460.658871525003	2
2	4269	15466.377826367278	1
2	4272	15478.638784610142	0
2	4286	15512.368652384537	1
2	4289	15513.367570592142	2
2	4295	15528.025032717492	3
2	4298	15531.442220524419	4
2	4299	15545.664817219962	3
2	4304	15548.391775809486	4
2	4305	15588.500264253448	3
2	4308	15618.313529823402	2
2	4311	15618.768830695049	1
2	4316	15620.022708089405	2
2	4317	15621.728891575216	1
2	4320	15637.721931558343	0
2	4349	15768.602699637948	1
2	4355	15795.833594855213	2
2	4358	15800.642966424858	3
2	4362	15816.870645572268	2
2	4370	15823.937049074738	3
2	4373	15834.980820432712	4
2	4374	15837.481648276531	3
2	4379	15838.468515269209	4
2	4386	15876.370284254574	3
2	4389	15877.922753197384	2
2	4400	15903.393385898341	3
2	4401	15906.699198861847	2
2	4404	15947.953834129346	1
2	4407	15949.543509459335	0
2	4430	16023.455593515059	1
2	4431	16027.397108624465	0
2	4448	16096.086187009784	1
2	4449	16100.711515979799	0
2	4457	16120.176413574744	1
2	4461	16142.910402195988	0
2	4475	16181.720187964439	1
2	4479	16223.039778984734	0
2	4487	16275.511272943541	1
2	4490	16276.648734753851	2
2	4491	16287.418976304057	1
2	4496	16292.461650041289	2
2	4499	16292.508716669896	3
2	4502	16295.861099676659	4
2	4505	16305.537505932328	5
2	4506	16306.01423057062	4
2	4509	16309.012118214934	3
2	4512	16335.480155507482	2
2	4515	16337.567450790044	1
2	4521	16363.462078297514	0
2	4541	16436.162660250129	1
2	4545	16463.455206142478	0
2	4553	16486.831129197211	1
2	4556	16504.444117139234	2
2	4557	16515.537015408312	1
2	4562	16520.519097659398	2
2	4563	16549.761995802057	1
2	4566	16556.228227069803	0
2	4586	16635.634288358164	1
2	4589	16643.927897133448	2
2	4590	16650.115822399049	1
2	4596	16660.896408908172	0
2	4604	16694.348515522307	1
2	4607	16706.188969084448	2
2	4608	16722.675010329201	1
2	4611	16724.744880857689	0
2	4616	16728.6120642867	1
2	4620	16749.44706776577	0
2	4628	16751.770663742064	1
2	4629	16761.686859688914	0
2	4643	16814.990487204299	1
2	4646	16827.157478063441	2
2	4647	16829.305693589656	1
2	4650	16840.520280595199	0
2	4658	16890.077390047366	1
2	4661	16893.750956321034	2
2	4662	16970.704794017636	1
2	4665	16998.391201538805	0
2	4673	17019.754637989967	1
2	4674	17026.8154777535	0
2	4682	17029.402141476329	1
2	4686	17039.209171457419	0
2	4697	17048.197318815476	1
2	4698	17059.017246002723	0
2	4706	17067.428498130233	1
2	4710	17081.567619791071	0
2	4718	17098.280537408162	1
2	4719	17132.953120365405	0
2	4739	17224.926266127279	1
2	4743	17244.877114548043	0
2	4751	17263.018474940978	1
2	4754	17263.870670917789	2
2	4757	17265.258363929716	3
2	4760	17265.513239640967	4
2	4769	17300.221541888758	5
2	4770	17309.367597861879	4
2	4773	17324.680383986446	3
2	4781	17340.389325440863	4
2	4782	17349.355230922008	3
2	4785	17368.351887571898	2
2	4790	17371.210368866331	3
2	4791	17380.842147399221	2
2	4794	17387.373879634761	1
2	4797	17396.526437917974	0
2	4814	17476.147871588548	1
2	4820	17491.185092014804	2
2	4821	17504.124706828787	1
2	4824	17520.995174964704	0
2	4829	17524.232289379449	1
2	4832	17527.255033025917	2
2	4833	17540.836170011099	1
2	4845	17565.651783522016	0
2	4859	17597.793214027447	1
2	4862	17613.374549171326	2
2	4866	17624.619686758647	1
2	4869	17630.743145588025	0
2	4880	17659.866343617423	1
2	4883	17659.884911696032	2
2	4884	17660.93171168591	1
2	4889	17666.140025779467	2
2	4892	17668.404600445661	3
2	4895	17670.637148741676	4
2	4898	17681.074379748114	5
2	4899	17685.042726406626	4
2	4904	17689.013845753415	5
2	4908	17694.111284697248	4
2	4914	17713.382707877694	3
2	4917	17714.23587021787	2
2	4920	17725.380179243036	1
2	4926	17755.012893018583	0
2	4937	17780.611807042809	1
2	4944	17793.811236795187	0
2	4949	17824.784584345518	1
2	4950	17826.254614243158	0
2	4973	17890.31293725212	1
2	4974	17891.742431725531	0
2	4979	17893.150169849212	1
2	4980	17904.394320568213	0
2	4988	17917.902947871012	1
2	4989	17924.83089173335	0
2	5003	17960.58827070189	1
2	5007	17962.672308907161	0
2	5015	18019.809947431611	1
2	5018	18046.652151656105	2
2	5019	18046.833361320315	1
2	5022	18047.178023440903	0
2	5030	18068.440238087025	1
2	5031	18096.565720569492	0
2	5036	18113.374301697149	1
2	5037	18129.334404291246	0
2	5042	18131.298040546841	1
2	5045	18147.197259173962	2
2	5046	18154.783682207945	1
2	5049	18155.827330953218	0
2	5057	18188.468518318108	1
2	5058	18189.053069939178	0
2	5084	18311.162788893723	1
2	5088	18317.485765452916	0
2	5102	18353.303992292267	1
2	5103	18354.508437515117	0
2	5108	18358.444466791359	1
2	5111	18373.564894259832	2
2	5112	18392.848471642814	1
2	5115	18397.551071122994	0
2	5120	18406.594804681171	1
2	5121	18410.654678848148	0
2	5150	18493.904177153156	1
2	5151	18494.489304330562	0
2	5156	18499.341987684711	1
2	5159	18509.438187683272	2
2	5160	18509.986229507367	1
2	5163	18516.603613045581	0
2	5168	18517.068032603323	1
2	5171	18540.088130823399	2
2	5172	18548.728456439868	1
2	5177	18588.715588664156	2
2	5180	18603.842136609662	3
2	5181	18609.015774974465	2
2	5186	18610.819032432835	3
2	5187	18614.718342302058	2
2	5192	18636.683396895211	3
2	5193	18639.917120718562	2
2	5198	18650.110856826315	3
2	5204	18663.050947402938	4
2	5210	18683.184890738184	5
2	5213	18702.480998588465	6
2	5216	18713.014271163486	7
2	5217	18719.084132360392	6
2	5220	18721.895868643162	5
2	5225	18728.047377009059	6
2	5226	18730.172218165081	5
2	5229	18738.420756865948	4
2	5232	18757.781256073695	3
2	5244	18820.261092580625	2
2	5247	18826.952962866668	1
2	5253	18852.84389056384	0
2	5258	18858.082745327985	1
2	5259	18864.659762749698	0
2	5270	18912.06214110542	1
2	5274	18926.503285386693	0
2	5282	18962.160385511636	1
2	5283	18966.774503794429	0
2	5288	18967.347974548392	1
2	5289	18978.542465453781	0
2	5297	19035.671267516211	1
2	5300	19037.245110717428	2
2	5303	19059.900360502238	3
2	5304	19062.731812648313	2
2	5309	19073.278761999157	3
2	5310	19074.76440551421	2
2	5313	19094.596682708288	1
2	5318	19096.636613619994	2
2	5319	19116.222665964326	1
2	5327	19129.639249046753	2
2	5330	19150.134819918908	3
2	5331	19152.766468888134	2
2	5337	19163.825297622293	1
2	5340	19172.266853079397	0
2	5351	19218.672613706383	1
2	5355	19260.055216810994	0
2	5366	19293.294693365074	1
2	5369	19301.371921824719	2
2	5370	19307.225953819793	1
2	5375	19311.82240909829	2
2	5376	19321.599002736764	1
2	5379	19327.961729753608	0
2	5393	19340.957794548797	1
2	5397	19357.663599555124	0
2	5423	19434.915993528789	1
2	5424	19439.16898943403	0
2	5441	19458.303735759202	1
2	5442	19465.313562182435	0
2	5462	19502.751642849227	1
2	5463	19529.871820713432	0
2	5471	19550.902221186099	1
2	5472	19638.925689127303	0
2	5477	19649.485175411094	1
2	5478	19663.081152928782	0
2	5483	19677.381072720343	1
2	5484	19703.246014431604	0
2	5489	19705.656933112321	1
2	5492	19707.442820184484	2
2	5493	19734.912284712327	1
2	5496	19751.17067962697	0
2	5510	19786.128166737323	1
2	5511	19800.170304233538	0
2	5888	21352.234453739404	1
2	5903	21402.385076434792	2
2	5906	21404.524848818124	3
2	5907	21411.778161239454	2
2	5912	21413.392156129898	3
2	5913	21418.897376393023	2
2	5919	21431.715370375031	1
2	5924	21437.429073707728	2
2	5927	21440.923662796413	3
2	5928	21443.988558036979	2
2	5933	21445.197697014423	3
2	5936	21446.610809053547	4
2	5937	21463.636220532559	3
2	5943	21474.962412826078	2
2	5949	21539.356102104414	1
2	5952	21539.929893927824	0
2	5957	21541.378622564841	1
2	5958	21541.711137528612	0
2	5975	21627.369091523741	1
2	5978	21654.200945159508	2
2	5981	21655.729981869404	3
2	5984	21684.750058661201	4
2	5991	21732.168605557354	3
2	5994	21733.32198492407	2
2	5997	21735.18620216205	1
2	6003	21741.32486406385	0
2	6011	21756.703709494527	1
2	6014	21765.295182309743	2
2	6018	21782.779764897648	1
2	6021	21786.864856013175	0
2	6026	21794.978510068272	1
2	6027	21795.872385330858	0
2	6032	21806.505796208735	1
2	6033	21813.28505387059	0
2	6047	21827.249206483668	1
2	6050	21828.878551664859	2
2	6051	21829.509654578284	1
2	6054	21839.376440149581	0
2	6062	21851.736194461442	1
2	6063	21878.281062857351	0
2	6068	21881.937853934808	1
2	6072	21907.645455015215	0
2	6083	21929.515399057083	1
2	6084	21954.163767876432	0
2	6098	21991.782080380613	1
2	6102	22018.192342163695	0
2	6110	22042.997050897532	1
2	6111	22044.787353022634	0
2	6122	22065.918770699353	1
2	6123	22097.609245777123	0
2	6161	22252.11361164709	1
2	6164	22272.453948969141	2
2	6165	22273.950245348181	1
2	6170	22287.100194013802	2
2	6173	22297.080635727543	3
2	6174	22303.532968882751	2
2	6177	22307.057042031759	1
2	6180	22308.53522136483	0
2	6194	22383.465912591408	1
2	6197	22388.665812640761	2
2	6198	22392.132340689921	1
2	6201	22396.757626217803	0
2	6209	22414.75890602402	1
2	6212	22428.178699197481	2
2	6213	22430.2432624522	1
2	6216	22447.178210839238	0
2	6233	22472.388107998936	1
2	6234	22477.402184313623	0
2	6251	22509.104498004638	1
2	6257	22511.433521185234	2
2	6260	22511.908231505897	3
2	6263	22512.370657889489	4
2	6267	22548.668330132082	3
2	6270	22552.924383061146	2
2	6276	22576.947918964889	1
2	6281	22594.872526899478	2
2	6282	22599.110085759002	1
2	6287	22615.347608897181	2
2	6288	22619.915395371155	1
2	6293	22622.961601552316	2
2	6297	22644.514140917126	1
2	6300	22671.161166788942	0
2	6317	22713.122482816295	1
2	6323	22721.976935178913	2
2	6324	22737.841731625796	1
2	6327	22740.029977169233	0
2	6413	22997.43262324546	1
2	6414	23008.749339704121	0
2	6578	23724.745703634991	1
2	6579	23776.000033908962	0
2	6593	23867.782908724873	1
2	6600	23925.915086417192	0
2	6620	23986.075511454281	1
2	6623	24004.80719858922	2
2	6626	24012.765138163114	3
2	6627	24017.96224944092	2
2	6632	24027.81999551264	3
2	6635	24033.897463329594	4
2	6636	24048.401324307025	3
2	6639	24061.571499197845	2
2	6644	24068.740773656932	3
2	6645	24073.171209151148	2
2	6650	24079.107237463781	3
2	6654	24097.018839358661	2
2	6659	24104.208591847044	3
2	6660	24111.729786367898	2
2	6665	24117.898588646653	3
2	6668	24125.744151103869	4
2	6669	24129.953354414237	3
2	6674	24183.367399538448	4
2	6675	24187.157356080897	3
2	6678	24188.726156703739	2
2	6681	24190.548459055279	1
2	6686	24210.712256464306	2
2	6687	24211.364249162624	1
2	6690	24227.686578667569	0
2	6707	24322.253342553468	1
2	6711	24327.022005985827	0
2	6716	24337.598276463116	1
2	6717	24357.005935208818	0
2	6731	24384.663658688756	1
2	6732	24386.721243828135	0
2	6797	24626.036722599871	1
2	6801	24644.440517585421	0
2	6839	24736.513880369956	1
2	6842	24744.984602805742	2
2	6843	24746.147338790617	1
2	6849	24754.683308355561	0
2	6857	24759.625870013004	1
2	6858	24767.765757747807	0
2	6869	24780.888588731993	1
2	6875	24816.074829355165	2
2	6881	24829.835032775056	3
2	6882	24863.437491260955	2
2	6885	24882.711069090444	1
2	6891	24916.116690225775	0
2	6896	24921.360277902155	1
2	6897	24931.438791615861	0
2	6917	24980.97379384161	1
2	6918	24982.129640029456	0
2	6941	25058.652544566148	1
2	6944	25059.820614809533	2
2	6947	25060.441526192257	3
2	6950	25063.382960592039	4
2	6951	25084.536155834286	3
2	6956	25093.745874837438	4
2	6957	25096.766234157879	3
2	6965	25113.189480847541	4
2	6968	25128.53494791356	5
2	6969	25131.909994791228	4
2	6972	25143.781068684257	3
2	6978	25180.85619533197	2
2	6986	25215.910988818141	3
2	6990	25220.576066610609	2
2	6995	25238.557079883265	3
2	6996	25248.382401212352	2
2	6999	25254.489508917482	1
2	7002	25256.523093172795	0
2	7013	25284.293276221137	1
2	7014	25289.877841331356	0
2	7019	25315.593126206449	1
2	7022	25346.341223185929	2
2	7023	25358.066207529765	1
2	7026	25382.938132398419	0
2	7043	25444.724982218777	1
2	7047	25482.800077577884	0
2	7052	25498.982214759098	1
2	7058	25517.682465138335	2
2	7059	25521.524924672758	1
2	7064	25525.226487752517	2
2	7067	25540.799713260516	3
2	7068	25544.895696846428	2
2	7071	25585.174005945201	1
2	7079	25605.013233779291	2
2	7085	25664.675029229352	3
2	7086	25681.192468992593	2
2	7089	25702.107957797005	1
2	7094	25707.832362555285	2
2	7095	25747.714534015745	1
2	7098	25754.791387282235	0
2	7106	25765.416094071311	1
2	7109	25776.412703035524	2
2	7110	25792.471651152899	1
2	7119	25828.892479969417	0
2	7124	25831.53644752689	1
2	7128	25856.173655107134	0
2	7133	25859.484622310383	1
2	7134	25862.654422327777	0
2	7139	25888.770876471641	1
2	7143	25906.975257722318	0
2	7163	25939.848376339392	1
2	7166	25954.126700522625	2
2	7167	25970.653261470046	1
2	7170	25982.057510403703	0
2	7181	26028.641972590401	1
2	7184	26040.701651056896	2
2	7185	26049.252397710492	1
2	7190	26055.050854220128	2
2	7194	26078.833692318364	1
2	7199	26082.113282365945	2
2	7200	26116.465643429301	1
2	7205	26132.627516466036	2
2	7209	26143.211001783154	1
2	7212	26159.134705679987	0
2	7217	26168.052282855533	1
2	7220	26169.143132753564	2
2	7221	26176.41795591032	1
2	7224	26209.248877435272	0
2	7235	26226.776884794017	1
2	7238	26230.449549358603	2
2	7242	26243.848349380406	1
2	7245	26257.105940415625	0
2	7250	26263.994214885077	1
2	7253	26270.322027345585	2
2	7254	26282.927028566293	1
2	7257	26299.554021224409	0
2	7277	26344.094273337904	1
2	7278	26348.939221434159	0
2	7289	26368.659228072669	1
2	7298	26393.853351112533	2
2	7299	26400.707691130364	1
2	7311	26447.827421053365	0
2	7319	26488.5352121515	1
2	7322	26491.917730783669	2
2	7325	26499.658850291473	3
2	7326	26509.574663225947	2
2	7329	26509.916806653043	1
2	7332	26525.640394699125	0
2	7346	26570.811212016545	1
2	7349	26575.024843360412	2
2	7352	26580.118573556374	3
2	7358	26595.167139277304	4
2	7361	26595.325773113223	5
2	7362	26610.129586117175	4
2	7367	26628.628435874905	5
2	7370	26629.860264812376	6
2	7376	26666.962115976402	7
2	7382	26684.425985997826	8
2	7385	26687.47578634035	9
2	7386	26690.965964143306	8
2	7391	26702.460941134566	9
2	7392	26717.574101965226	8
2	7395	26725.714504894476	7
2	7403	26736.423805311512	8
2	7407	26751.13666420137	7
2	7412	26771.763020739371	8
2	7413	26772.855124541246	7
2	7418	26777.337909112886	8
2	7422	26791.042965315845	7
2	7427	26833.000330012973	8
2	7428	26837.466517997311	7
2	7433	26845.285640312694	8
2	7434	26851.515521644468	7
2	7437	26852.935981182123	6
2	7440	26865.055762497132	5
2	7443	26871.217096315442	4
2	7446	26886.573028857488	3
2	7449	26913.100041948761	2
2	7455	26937.426391230618	1
2	7458	26944.19807902187	0
2	7469	26978.998315290794	1
2	7470	26980.937474523053	0
2	7496	27132.433016031657	1
2	7497	27137.014011414643	0
2	7523	27184.158690443089	1
2	7524	27185.770381023435	0
2	7550	27352.315472045533	1
2	7556	27419.551897970588	2
2	7559	27434.67772611303	3
2	7560	27438.927911426429	2
2	7565	27444.304095957892	3
2	7566	27447.342330556411	2
2	7571	27457.168631998184	3
2	7580	27536.484726784853	4
2	7583	27537.722227840953	5
2	7586	27572.255007578434	6
2	7587	27572.477512528761	5
2	7590	27614.820979954983	4
2	7595	27622.242936206618	5
2	7596	27624.004137940662	4
2	7601	27632.522394086944	5
2	7604	27639.183991780848	6
2	7608	27675.169702353209	5
2	7611	27683.981909998822	4
2	7616	27686.050158285524	5
2	7619	27698.208748975747	6
2	7625	27717.974071976682	7
2	7628	27745.308217605059	8
2	7629	27752.905191479392	7
2	7632	27763.290907189095	6
2	7635	27767.12034483485	5
2	7640	27772.370424749923	6
2	7646	27810.597223000565	7
2	7649	27811.331285745867	8
2	7656	27859.191135342861	7
2	7659	27865.656193466334	6
2	7662	27873.026341647211	5
2	7673	27888.633159582541	6
2	7677	27901.43891572009	5
2	7683	27920.918784057134	4
2	7697	27982.546542295917	5
2	7700	27999.585329097226	6
2	7701	28001.21700913221	5
2	7707	28005.780816671148	4
2	7710	28018.121783254991	3
2	7713	28026.813378420698	2
2	7716	28093.366724268895	1
2	7722	28098.215351200037	0
2	7727	28099.335606822677	1
2	7730	28099.94517359148	2
2	7731	28103.675002759038	1
2	7734	28110.865962346651	0
2	7742	28136.67836144606	1
2	7743	28136.766396792529	0
2	7790	28325.019299306944	1
2	7791	28331.14405397738	0
2	7805	28358.019338900708	1
2	7806	28371.516930094236	0
2	7823	28397.576183039739	1
2	7824	28413.326811220821	0
2	7829	28432.615782225796	1
2	7830	28450.738938650007	0
2	7835	28461.344260485332	1
2	7841	28472.216141638133	2
2	7844	28480.699777019025	3
2	7847	28521.694816487265	4
2	7848	28526.05261916088	3
2	7853	28527.364063339039	4
2	7859	28575.868066606803	5
2	7860	28616.841510446965	4
2	7863	28620.696831648755	3
2	7868	28629.373079534658	4
2	7869	28658.129516485388	3
2	7872	28713.949240302851	2
2	7875	28724.883992325919	1
2	7884	28767.957207055448	0
2	7895	28804.66409758861	1
2	7896	28822.395600428947	0
2	7910	28873.991893899433	1
2	7911	28890.358081051556	0
2	7940	28984.131429964729	1
2	7941	29000.433048419231	0
2	7949	29011.889604375413	1
2	7952	29014.783061497844	2
2	7955	29032.176559041715	3
2	7958	29056.652156918085	4
2	7959	29064.841317061054	3
2	7962	29073.293150507425	2
2	7965	29081.633882190958	1
2	7970	29093.923953875165	2
2	7971	29106.008068309518	1
2	7974	29116.398766210334	0
2	7982	29143.627102639655	1
2	7985	29152.847328364075	2
2	7986	29167.66021271969	1
2	7989	29180.320924068032	0
2	8000	29242.284703554425	1
2	8007	29254.147372735994	0
2	8012	29268.123740829174	1
2	8013	29283.845428454826	0
2	8039	29369.492465505891	1
2	8043	29395.354358592169	0
2	8057	29405.992393650433	1
2	8058	29408.008628296618	0
2	8081	29461.181209849819	1
2	8082	29468.049548461019	0
2	8090	29492.41455088417	1
2	8093	29495.184769100554	2
2	8094	29500.214962440397	1
2	8097	29507.627437003286	0
2	8108	29539.117351545723	1
2	8109	29547.229126207904	0
2	8123	29578.793479837689	1
2	8124	29586.551933274221	0
2	8165	29743.084239236054	1
2	8166	29745.647108323729	0
2	8186	29823.467465838209	1
2	8187	29826.172770905305	0
2	8417	30576.263647763099	1
2	8418	30581.148291681636	0
2	8666	31646.914568353057	1
2	8667	31651.33273414697	0
2	8717	31887.079224321992	1
2	8718	31889.195974295466	0
2	8723	31894.523870047328	1
2	8726	31894.827961835881	2
2	8727	31906.975105922198	1
2	8732	31915.697974393721	2
2	8733	31952.620352620794	1
2	8736	31965.771086921396	0
2	8744	31973.523441961585	1
2	8745	32006.466014831603	0
2	8750	32012.041280133454	1
2	8753	32025.145499603075	2
2	8754	32028.922216423633	1
2	8757	32072.069387895596	0
2	8795	32196.233551066862	1
2	8798	32197.542402653087	2
2	8804	32210.728653437438	3
2	8805	32227.826201569963	2
2	8813	32232.584039920092	3
2	8816	32238.219554735965	4
2	8819	32243.364913713639	5
2	8822	32265.587312278606	6
2	8826	32281.096675873739	5
2	8835	32296.623252534454	4
2	8843	32308.015840320591	5
2	8852	32328.781737276268	6
2	8853	32333.8485036659	5
2	8856	32335.311440718823	4
2	8859	32374.273561968248	3
2	8865	32400.962112620883	2
2	8871	32431.912738131754	1
2	8876	32435.406033013457	2
2	8877	32482.559504302694	1
2	8882	32490.480401730129	2
2	8885	32506.428661012301	3
2	8888	32516.108787694387	4
2	8889	32520.781018310149	3
2	8892	32525.17950758587	2
2	8897	32530.955760629188	3
2	8898	32567.94839098626	2
2	8901	32568.108457750138	1
2	8907	32589.429013952655	0
2	8924	32679.594112610143	1
2	8927	32680.644678906723	2
2	8934	32702.758734994722	1
2	8937	32704.886968720045	0
2	8957	32729.094475853524	1
2	8960	32743.507259152067	2
2	8961	32751.694487572043	1
2	8964	32787.460717048525	0
2	8972	32805.181423001484	1
2	8973	32815.292402087099	0
2	8993	32828.339177236476	1
2	8994	32836.749677140317	0
2	9008	32882.406301092875	1
2	9009	32890.540585221847	0
2	9014	32912.609874284552	1
2	9017	32914.193555493283	2
2	9024	32939.299800108041	1
2	9029	32947.788981495708	2
2	9030	32963.827253611928	1
2	9033	32982.789477678775	0
2	9044	33008.629352165269	1
2	9045	33008.762946168815	0
2	9053	33026.74717682805	1
2	9056	33046.872502843673	2
2	9060	33073.268518234662	1
2	9068	33099.913405646474	2
2	9069	33128.992752499605	1
2	9072	33145.253995007596	0
2	9098	33231.703684962993	1
2	9105	33271.262517324757	0
2	9110	33281.753190451395	1
2	9111	33282.534458970011	0
2	9116	33287.292827089763	1
2	9119	33315.073778993926	2
2	9120	33341.737142087115	1
2	9125	33365.348181046403	2
2	9131	33412.904532597119	3
2	9134	33430.536748873154	4
2	9137	33434.312019523636	5
2	9140	33437.405016111223	6
2	9141	33491.200412114084	5
2	9144	33519.373205868008	4
2	9147	33539.999391370695	3
2	9156	33549.18479749837	2
2	9159	33571.600499210424	1
2	9164	33575.097717540172	2
2	9165	33576.327712796633	1
2	9170	33618.083488277807	2
2	9174	33638.188300484502	1
2	9177	33645.805383802015	0
2	9185	33663.643126522558	1
2	9188	33685.202576959451	2
2	9189	33688.15809909276	1
2	9194	33697.864618087491	2
2	9197	33721.325353919596	3
2	9200	33745.901684477596	4
2	9201	33753.696849363887	3
2	9212	33787.039751324781	4
2	9216	33788.152213172729	3
2	9224	33794.372195411785	4
2	9227	33806.41404597357	5
2	9228	33826.708936911453	4
2	9233	33829.161360959454	5
2	9239	33879.338784541238	6
2	9245	33881.894881373767	7
2	9246	33891.29392539838	6
2	9252	33906.893472826521	5
2	9260	33919.633753618019	6
2	9267	34027.222721662617	5
2	9270	34027.39311388731	4
2	9273	34043.511349736144	3
2	9276	34057.74075364404	2
2	9279	34113.797598087336	1
2	9287	34137.571777952895	2
2	9288	34178.18421154605	1
2	9293	34186.453296694407	2
2	9294	34190.846368831532	1
2	9297	34203.509168746121	0
2	9344	34317.248363448822	1
2	9348	34329.772812506471	0
2	9353	34331.381079012101	1
2	9356	34343.931170851328	2
2	9359	34352.769371122204	3
2	9360	34358.979725993085	2
2	9366	34368.069670906339	1
2	9369	34375.510307633246	0
2	9380	34459.706096077483	1
2	9384	34482.205595184712	0
2	9389	34503.278575179739	1
2	9395	34519.053306256922	2
2	9404	34529.911420351354	3
2	9407	34531.330366777242	4
2	9408	34541.111070254253	3
2	9417	34576.75254672647	2
2	9420	34578.521953429639	1
2	9423	34581.908557320822	0
2	9431	34596.783343072149	1
2	9432	34599.335859060627	0
2	9443	34613.853748079117	1
2	9444	34616.213873644118	0
2	9452	34630.620109253291	1
2	9453	34637.496074337889	0
2	9494	34761.987707502498	1
2	9495	34767.838449194365	0
2	9509	34807.833644718282	1
2	9512	34822.139560449946	2
2	9515	34829.592916151288	3
2	9518	34855.213821511922	4
2	9519	34857.144435082057	3
2	9524	34858.749262614537	4
2	9527	34905.694214831636	5
2	9530	34916.375787408563	6
2	9533	34936.866678819972	7
2	9536	34947.158056762236	8
2	9537	34983.146388536773	7
2	9540	34985.290874674171	6
2	9545	34989.68447880475	7
2	9546	34997.729863451088	6
2	9549	35002.66649756252	5
2	9552	35012.320983407764	4
2	9555	35014.315975584646	3
2	9561	35032.429260259536	2
2	9566	35048.503502347801	3
2	9569	35060.887244050421	4
2	9570	35062.876591782892	3
2	9575	35084.574661427938	4
2	9579	35113.94566951374	3
2	9582	35126.03359291169	2
2	9585	35139.871672665338	1
2	9588	35148.658967499306	0
2	9614	35218.704923833045	1
2	9615	35222.268478411057	0
2	9629	35257.92705093289	1
2	9632	35278.494227462155	2
2	9635	35295.474785560548	3
2	9636	35311.709772013968	2
2	9641	35312.682283530341	3
2	9642	35318.152750993502	2
2	9647	35329.252830083015	3
2	9650	35331.657875626298	4
2	9651	35338.527365299116	3
2	9672	35410.264722338443	2
2	9677	35421.622132519558	3
2	9680	35430.395303691158	4
2	9683	35444.864946586579	5
2	9684	35456.11615016765	4
2	9687	35461.275768196523	3
2	9693	35495.199311083919	2
2	9696	35498.566581861565	1
2	9699	35501.959169815951	0
2	9704	35508.697591773946	1
2	9705	35530.136679698264	0
2	9722	35583.779431442445	1
2	9723	35588.245518704356	0
2	9737	35647.246710265948	1
2	9740	35677.655915567926	2
2	9741	35677.867814148452	1
2	9744	35736.169758796515	0
2	9752	35748.545748895579	1
2	9755	35748.558241096272	2
2	9758	35750.078041184805	3
2	9759	35754.132275105781	2
2	9764	35760.952500872816	3
2	9765	35766.172361699697	2
2	9768	35771.728707114048	1
2	9773	35782.035153390389	2
2	9774	35785.037628473054	1
2	9782	35799.773193678443	2
2	9783	35829.150016269885	1
2	9786	35832.85103233538	0
2	9791	35837.779281241563	1
2	9792	35839.545027667148	0
2	9815	35940.392098086773	1
2	9818	35961.45303829036	2
2	9822	35980.550393349823	1
2	9828	36000.424445365735	0
2	9833	36016.145027710163	1
2	9836	36036.569875383707	2
2	9839	36039.330752237483	3
2	9840	36039.976513282857	2
2	9843	36046.158407494131	1
2	9846	36070.362076590783	0
2	9857	36096.814805769574	1
2	9858	36098.687175978816	0
3	62	319.798701241457	30.284681096147
3	64	320.258524440491	226.4809280215
3	66	322.030564655365	8.394916832016
3	68	327.231305778361	37.467181737084
3	86	396.383652499318	323.53966853257
3	88	403.633547372912	198.76046513381
3	90	409.995760242951	379.4447070345
3	92	422.572003366954	236.53838991891
3	106	525.046251599286	309.34906057156
3	116	584.345846834735	426.68347257285
3	122	595.728630048724	51.734382279048
3	124	596.845837684455	345.006902542
3	138	657.364612350841	63.593898685518
3	160	720.249181018841	7.796081941651
3	175	749.916909149952	254.38000790658
3	187	787.372218631355	126.29222473469
3	193	858.987351286962	644.81630434306
3	199	874.704627593629	220.11751101366
3	208	926.676651208433	303.24701691168
3	211	929.09982093722	250.33287592824
3	214	954.629205318904	211.02727363952
3	217	969.651315002036	77.642049488405
3	220	970.22147214724	419.80850035752
3	226	985.490342097299	618.87733029996
3	244	1042.095452753006	280.2181138017
3	247	1043.675850621087	345.37756400661
3	256	1062.522455230648	91.417253619409
3	262	1078.626732516423	17.840790892357
3	265	1085.656004803948	734.65742967329
3	271	1104.749130216187	913.86853745693
3	277	1110.837446764275	251.11099708953
3	280	1116.006790616162	395.12756595602
3	283	1124.662596650631	623.29628530996
3	286	1133.4722473246	659.75345795228
3	289	1144.2911278483	420.12431656211
3	292	1148.987159668332	59.490673064325
3	298	1196.963063820556	121.79221828321
3	304	1207.135370981034	176.74484769572
3	306	1212.792333319338	838.56916001412
3	316	1229.489797373389	215.93130720222
3	325	1258.024329013077	528.34487708572
3	331	1283.42876680388	611.67273338394
3	334	1286.206098933845	48.068673424698
3	336	1290.05468671138	120.04509917283
3	342	1291.736091524917	71.15538447607
3	348	1331.442721939529	115.19385048487
3	350	1340.434801122694	1067.8824292839
3	356	1344.549509466494	67.310686121546
3	366	1380.310114743142	89.959925164497
3	368	1405.402300188638	483.80345188462
3	374	1420.490496166519	41.981546306748
3	376	1421.304339165474	634.78246656588
3	378	1426.816753819053	417.95123905445
3	388	1453.652303939719	41.525292651984
3	390	1456.140662221198	258.08398978737
3	396	1488.434798891911	189.06573663126
3	398	1492.039715639879	501.06661496736
3	408	1530.302700483838	477.93238327013
3	418	1565.31695054046	1362.4289470505
3	420	1568.508064472108	16.430258912953
3	426	1579.434383751988	750.92902449902
3	436	1624.334034925986	52.631330542908
3	442	1664.83583790807	51.945729570806
3	444	1689.869442027716	136.62060903608
3	446	1697.002002041529	444.83953471502
3	452	1710.649366339602	259.89034111867
3	458	1731.389152281637	144.33337273572
3	460	1745.844489379354	27.248232009178
3	470	1799.485522841556	1189.6068164527
3	472	1808.207682812546	157.29008998219
3	486	1895.560586627869	381.60466222647
3	492	1921.521732564053	40.545276759902
3	494	1923.853566995902	219.83747843608
3	496	1939.624777319112	126.75849928021
3	498	1963.380751035086	1580.3861882173
3	516	2037.904575264948	58.086923273473
3	522	2048.632102231421	707.05631132151
3	528	2069.76569298858	552.48480685461
3	542	2114.096161731291	8.348420565005
3	544	2126.079700335433	157.64324799452
3	546	2126.9191213523	747.94557582588
3	548	2128.185684132434	343.63608563978
3	558	2141.173817469371	1.934388142354
3	572	2161.213364618775	83.166030251135
3	574	2168.275069422851	304.45192863373
3	576	2192.833045257046	140.41986264773
3	594	2257.670629629217	352.59510848151
3	596	2260.887048881672	484.6468956238
3	606	2288.558168566821	129.35060261125
3	608	2325.661001520992	117.55461970082
3	618	2374.041380582375	103.74461707825
3	624	2393.217029629749	1635.03146589
3	630	2431.945695516231	452.44766904734
3	632	2451.468973220824	362.96603624526
3	652	2560.459588080321	517.83279595478
3	655	2566.054484098915	352.7995097777
3	658	2581.765221099345	243.56847528286
3	667	2603.317644732398	145.09127477568
3	670	2609.543670615029	368.498847893
3	672	2610.2595577902	349.02975355298
3	674	2620.450912143224	465.5126323507
3	680	2678.585293745097	132.65818904604
3	682	2706.441377115739	546.11948611137
3	692	2735.445245141265	207.56270532717
3	724	2858.830433521307	725.71958076177
3	733	2891.340367122129	494.12005113832
3	742	2916.454208582307	1911.781118957
3	745	2923.844708719085	373.95831681864
3	769	2983.530493540091	226.62375194517
3	772	2983.675613861152	165.53749014511
3	775	2991.052629612592	1540.8519298892
3	778	2997.3239877474	285.97357843009
3	781	2997.733218806317	130.69468299641
3	784	2998.432638612655	224.44732987686
3	790	3018.778189919199	1546.1521139311
3	802	3054.330442627348	1088.844186686
3	808	3088.044030460343	491.08221654677
3	811	3096.384215331752	91.858015529733
3	823	3121.561684355035	147.4222732154
3	826	3146.935427197902	769.99201062129
3	829	3152.299233259988	383.21758384711
3	832	3156.249941572105	690.85902606838
3	838	3157.543106485927	212.09590341438
3	844	3172.476366753212	424.47957137526
3	847	3195.706029791427	265.1838075143
3	850	3199.356376003858	262.53842201403
3	853	3204.372066349461	530.97470947707
3	862	3270.900671988215	232.80904809051
3	865	3286.634949183855	44.332326519842
3	868	3286.876515044017	490.99164622526
3	874	3334.557264889372	504.21561583376
3	877	3336.059171078826	179.41214083764
3	880	3336.473491274557	2227.8178357104
3	886	3359.515760568512	294.85010940123
3	892	3390.386675730465	275.02743161339
3	895	3391.099635008993	493.05515479616
3	901	3409.580630263128	98.397107817604
3	913	3426.305487004268	547.61856395463
3	916	3431.687407965471	489.53557854954
3	919	3432.82950263724	475.46654897718
3	922	3461.602008214849	877.4153149431
3	934	3547.767031261981	1346.0838460408
3	940	3578.652783133069	480.78436198294
3	943	3583.86673082467	1254.4877609795
3	946	3585.544334955848	31.396971311686
3	948	3608.217858644645	375.542920229
3	954	3620.691297575544	4.842908318465
3	956	3621.756696938744	520.90018434707
3	958	3623.736432759947	209.72082470178
3	960	3624.480212629466	216.74024962665
3	974	3681.196421166609	264.7438500418
3	984	3734.735799471387	238.63915694086
3	986	3737.112710280847	368.12748905966
3	996	3750.38252147479	22.96259173718
3	1002	3757.675258583947	77.389234815057
3	1004	3757.967425652965	7.683838343012
3	1014	3782.615174216911	986.07139283232
3	1020	3814.473398422043	183.40990923333
3	1022	3830.793287947712	91.710214529435
3	1032	3867.284695747224	104.19084481393
3	1034	3879.131854071316	13.29864670921
3	1040	3917.630737746251	504.76388039685
3	1042	3937.508503562072	174.12306865762
3	1048	3955.4865506707	926.22795703776
3	1050	3957.010931530011	796.98722955925
3	1060	3970.666451668948	73.962467377807
3	1066	3990.712286865028	526.21735776689
3	1068	4009.460813675251	1284.5674949975
3	1070	4010.82413945137	1185.8041832398
3	1072	4017.585428038535	302.54988209448
3	1082	4081.16125105846	111.65557691069
3	1092	4180.520126959	538.12162761336
3	1094	4182.332210229682	838.6458293708
3	1123	4320.347680287392	353.83961467576
3	1126	4334.895977133641	500.92548617413
3	1132	4339.127926324831	153.66734981618
3	1134	4348.031412961255	399.27916697702
3	1140	4372.467857444679	315.26973802922
3	1142	4379.799975433568	880.69240487643
3	1144	4382.62013302696	96.800599675007
3	1146	4383.629515786212	84.679171926529
3	1148	4405.737419349112	648.72762878555
3	1162	4424.536069732492	1529.4055333388
3	1164	4430.363996527035	391.20200979983
3	1166	4439.638392909951	24.569975758234
3	1168	4442.209221048936	106.04324597933
3	1170	4447.689255679018	208.73256542422
3	1180	4469.514063726335	120.63164494046
3	1182	4489.477311250387	366.35659511001
3	1192	4570.992192066911	10.270213211562
3	1194	4577.185848470292	153.57828549613
3	1200	4597.462198407887	283.47716084043
3	1202	4609.397772644189	81.364739222261
3	1204	4615.922016176368	28.612862811248
3	1210	4654.467265312395	234.22789934095
3	1212	4657.401254275021	194.98509532684
3	1214	4676.533343969935	538.32178762965
3	1240	4788.683842030112	1764.96088519
3	1254	4817.015696266009	8.576426848776
3	1260	4860.442491764661	552.93779505914
3	1262	4872.157138352014	100.48581005964
3	1264	4881.046449391585	1081.8419525075
3	1270	4926.558010102224	125.60361464568
3	1272	4928.207327285835	248.48288073579
3	1274	4945.511930810011	489.85368060215
3	1288	4990.617863447254	158.51764225259
3	1302	5015.287314896063	316.10823825063
3	1316	5080.272990523246	198.77537725824
3	1322	5090.795171328731	1118.4741331802
3	1324	5100.440129196951	84.39793295037
3	1330	5120.401723796239	467.5283257772
3	1332	5130.953350116859	131.34518315273
3	1350	5190.350704995608	99.757300899106
3	1352	5227.382798604975	447.12872221549
3	1354	5264.517615181782	98.608566488309
3	1356	5277.176666679137	120.40304943799
3	1366	5290.577996444149	10.685073274373
3	1372	5320.610184475011	364.7632926068
3	1393	5381.616677609481	95.567782556148
3	1396	5382.180048492725	407.50826438075
3	1398	5400.777439570428	583.7776002455
3	1408	5454.011383297515	51.388394458551
3	1414	5478.831217058462	300.12357041326
3	1423	5487.077268247547	1187.4100682704
3	1429	5497.319596535612	133.66378338826
3	1432	5519.212623112178	192.62603162652
3	1441	5531.344376025075	58.21487630083
3	1447	5544.124432632056	227.21657033789
3	1450	5547.925446752261	478.03955948786
3	1459	5584.305667816951	255.98284631337
3	1468	5595.655917653066	66.072186618039
3	1471	5608.808799198862	83.210551879913
3	1483	5650.400075488541	932.90424648727
3	1489	5669.800809550145	657.48469059626
3	1492	5681.097274846187	539.44078510888
3	1495	5686.201703207768	47.868143877279
3	1498	5692.141212592383	730.81691143878
3	1500	5694.336320813906	210.18405123112
3	1513	5733.951976765116	180.61616549254
3	1516	5734.355142103427	299.42329936381
3	1518	5735.116985699099	363.23590462953
3	1531	5745.781893263453	6.80866480727
3	1540	5778.861178265479	43.437428557015
3	1549	5819.305615475966	276.42571357894
3	1552	5839.838053441082	346.33246371276
3	1555	5846.603815001723	846.99753000203
3	1558	5847.193958887862	119.71799073639
3	1560	5861.50621818104	142.00854890429
3	1570	5917.374903336035	27.163816394987
3	1579	5955.309576639356	186.22809319582
3	1582	5976.28153348557	2993.5709550266
3	1588	5999.994824006332	364.66064405318
3	1594	6000.959434962735	518.60500880326
3	1603	6047.148100560978	391.95670588928
3	1615	6117.445160757717	108.33019337526
3	1621	6160.510896579852	572.51369356096
3	1624	6163.503817752036	169.63197522473
3	1630	6175.07271932171	273.23598506569
3	1633	6176.38463151793	587.33593458598
3	1636	6201.166789334326	822.26953648219
3	1638	6209.467718979096	408.45069747769
3	1640	6221.819667006195	580.84976170775
3	1654	6269.811233654806	5.476675624474
3	1656	6286.0168263444	1254.8588992029
3	1662	6318.900239375109	231.62439312302
3	1664	6323.231902828949	1210.181394021
3	1666	6339.48683799143	532.71942290462
3	1672	6416.31793485802	65.897312833983
3	1678	6458.430314377225	291.51293045763
3	1684	6476.020168273385	175.306218747
3	1690	6514.546905707225	745.78104509255
3	1708	6569.646454003555	425.36771462962
3	1717	6595.634949877844	60.509490335676
3	1729	6644.508353545998	1906.8971883396
3	1735	6647.187879296388	395.38690182852
3	1738	6658.628787536013	86.529181451891
3	1741	6670.217688057675	622.25435792478
3	1744	6686.828351034605	85.274163542133
3	1750	6713.423762613866	188.97423160585
3	1752	6732.897766200634	267.4777077096
3	1758	6743.587042615519	1182.5174751931
3	1764	6759.433412033916	282.74476964747
3	1770	6777.288712378599	675.75603085406
3	1783	6814.939327987519	866.86889565156
3	1786	6816.697775869977	34.762171114137
3	1792	6835.983443142359	1094.7963772834
3	1801	6882.166174583193	58.413585182391
3	1804	6884.807709582044	22.566930118496
3	1806	6889.929575573228	305.80768593017
3	1808	6923.55448874731	112.0632028663
3	1810	6933.330691858767	166.53016464274
3	1812	6943.608509232512	419.29689314941
3	1826	6979.657479771116	4.723725835701
3	1832	7004.746808002145	390.18450557837
3	1834	7014.214998759239	214.93970565252
3	1836	7014.257071582568	776.83179791757
3	1842	7025.891723540132	34.056394169508
3	1848	7044.806630766641	65.321536838679
3	1850	7058.551468845084	38.582438933147
3	1852	7061.262306731055	1343.3520207382
3	1874	7180.450808399646	115.70637323557
3	1888	7211.776496316175	23.41324484389
3	1900	7245.660186528106	57.937800494593
3	1906	7262.739664378487	709.64631907406
3	1912	7272.832578180215	1243.0701149847
3	1921	7314.441864420475	129.5307718022
3	1924	7326.588056402554	224.26532076937
3	1927	7340.153351050126	1339.4165216229
3	1933	7360.115462554376	611.3336290336
3	1936	7366.371546295798	147.53310185282
3	1951	7413.649944548249	538.03008310653
3	1957	7442.256088639778	96.663170692979
3	1966	7451.470636492783	140.49382043406
3	1969	7456.257805705374	334.97253399837
3	1972	7461.744809492143	855.81889393228
3	1975	7494.921497515904	458.21873040378
3	1981	7497.783652350491	256.94126797004
3	1990	7502.83880495136	1559.3437748491
3	1996	7512.619748075725	240.73413920049
3	2005	7536.577643917201	259.97550854783
3	2008	7542.490644595761	92.587674747525
3	2017	7560.106125220655	322.32355642647
3	2020	7568.352356198522	317.17493880429
3	2026	7571.496739863648	70.180731111667
3	2029	7579.691413702792	137.65675690103
3	2032	7580.824365162861	605.07590893539
3	2056	7687.313249795422	240.00488243726
3	2059	7702.371977043477	533.66115623353
3	2062	7707.774812132605	974.22929563236
3	2065	7717.169140070472	39.379269890447
3	2071	7737.332213371428	150.61148094319
3	2086	7789.720469552487	277.57260997262
3	2092	7832.042843851656	273.09860043857
3	2101	7845.757206369988	289.45996982764
3	2113	7861.831277868771	366.07504178403
3	2122	7880.356548086325	309.2120183723
3	2125	7904.389439862888	504.09971281307
3	2128	7921.527481553914	516.17633964114
3	2131	7944.838278506493	809.69365945849
3	2134	7946.984387774016	162.46261557026
3	2140	7948.490298017324	316.7042325125
3	2143	7952.370639664626	292.78451742178
3	2146	7961.311242672553	122.15420809654
3	2149	7984.089882734968	120.20572577775
3	2152	8014.670854153812	638.58940133524
3	2158	8030.533153602577	310.97288466251
[...]
3	15278	584446.734106723192	866.64156043269
3	15284	584533.523732269966	50.274919912419
3	15290	585776.17709331551	701.91309193086
3	15296	586368.722054963402	179.08890790752
3	15306	588812.422534861813	884.74385314263
3	15312	589213.19249684043	1676.2565335847
3	15318	589583.235739002748	181.02485383749
3	15320	589709.891208549124	789.27784492442
3	15330	590675.093067205762	581.65873034635
3	15336	591389.31234448631	307.11016923202
3	15338	591946.616967327712	1764.2104177339
3	15344	593704.302502682515	261.50312618637
3	15350	596640.858192768071	6.072291810793
3	15360	597554.021911944826	495.11207955747
3	15362	598056.664168758749	803.627077207
3	15368	601280.665958418663	116.84622760332
3	15374	602977.744926086783	155.51102644322
3	15384	603218.865608597045	30.746877008964
3	15386	603468.874452909381	285.4403799554
3	15392	603546.100628820269	38.600246401158
3	15398	606959.143443678466	224.67073257401
3	15404	607528.227298196438	124.43176466105
3	15410	607980.778268395998	214.10582953189
3	15416	608452.00675010695	249.00190520578
3	15430	609658.000539950907	61.859264320968
3	15432	610011.616354636345	1537.6160619301
3	15434	610527.846257989569	1186.5792176808
3	15444	611536.029212485867	34.362173440385
3	15450	611715.69952115721	880.38212007449
3	15452	611973.150776648214	291.2082648123
3	15458	616395.565447999026	73.576766154204
3	15464	617037.052122460003	187.22538586375
3	15470	617922.395024761217	558.96161409503
3	15476	618199.430394575407	227.08800991721
3	15482	618903.772076078832	676.0180275853
3	15488	622176.368432444013	521.45418975515
3	15498	623406.319027063736	1176.2372938602
3	15500	623462.504180668339	313.96475272758
3	15506	624245.779648121173	665.91689714017
3	15512	624421.985396828942	160.26813859785
3	15518	626876.555590524771	174.37060666159
3	15524	627103.464353612185	210.29915001789
3	15530	628752.295201616716	217.49546526859
3	15536	629225.167688997198	44.791500069801
3	15542	629790.422983249899	300.89052324563
3	15548	630738.79206417658	41.845895640732
3	15558	631188.147717483006	26.238185854099
3	15564	631824.53204922057	245.48272293247
3	15566	631894.888619058657	906.30221778134
3	15572	632077.520758519491	137.70347381763
3	15578	633373.41646307485	69.156556371323
3	15588	635445.802366545147	629.53737199499
3	15590	635448.529604471115	515.81689119387
3	15596	636517.935367247922	64.840621138788
3	15606	637173.450201600095	411.72132704479
3	15608	637675.621857723192	646.45771418824
3	15614	638912.689300004729	610.0349153918
3	15620	640496.806303690547	39.792554350856
3	15626	641905.340800290391	475.44958510761
3	15632	644861.067866749684	517.39362061376
3	15638	646297.945206973536	814.48163075217
3	15644	647782.664485675597	291.54970309656
3	15650	648510.612951350059	254.0860039138
3	15664	651296.293545604366	654.37345264854
3	15666	651486.598116193589	336.23934222088
3	15672	651671.002156916539	164.97498698619
3	15682	651893.777148432324	1379.2076026294
3	15684	652092.532287270374	249.79368584336
3	15686	652441.145185981576	766.87125476533
3	15692	652491.64408625235	39.976241614838
3	15698	653309.188530557838	249.39227159821
3	15704	656419.534406569302	844.80153171669
3	15714	658548.574692698062	5.940221589855
3	15716	658767.013173941543	244.42930427616
3	15726	659243.437753905185	388.56939441339
3	15732	661115.912306405848	2252.214172751
3	15734	661781.766937294127	698.54729868983
3	15744	662268.582993826883	394.70045825908
3	15746	663067.052831193255	1010.2614241793
3	15756	664265.56319541247	283.76655850895
3	15758	664594.681778248743	690.38221509868
3	15768	666349.835691580804	367.67191122468
3	15770	666539.231159422357	540.1086620425
3	15780	667110.220034733574	24.634223105347
3	15782	667400.807155801508	770.03883840967
3	15788	668788.188677492111	612.71202483511
3	15794	669251.072612832621	243.84961274338
3	15800	669906.13898502471	444.35722252594
3	15810	674504.422839245234	594.5564382573
3	15812	674812.542988855909	318.70855176595
3	15818	675254.94876762396	70.933222692974
3	15828	676357.275896581803	32.875252256785
3	15830	676432.218314797411	216.52757508766
3	15836	679024.421145121348	480.43009689281
3	15846	680675.830164771126	1262.898956972
3	15848	681236.989856792027	651.83748330738
3	15854	683452.375685275403	203.01191545916
3	15868	684546.250908213107	149.06722942366
3	15870	684680.458109889633	360.76387553759
3	15872	684808.129644604884	320.08862055482
3	15882	685509.361088837436	147.0204240756
3	15888	685660.494659566169	123.38862531117
3	15894	686042.485362375197	551.0075934407
3	15896	687407.402079526358	1366.4939459092
3	15902	690465.192329205981	445.75321456551
3	15908	690879.30234541729	29.28679650284
3	15914	693104.266775212634	4.453703301213
3	15920	696121.537591147269	2393.9572885442
3	15930	696608.04750672743	102.38410390861
3	15932	696691.316250464186	154.03651818056
3	15938	697956.452207988147	96.057593648472
3	15952	702178.903575544352	1081.9590346981
3	15954	702190.84953893024	433.84738273399
3	15956	702350.348755802881	288.50495718756
3	15962	703494.426747174002	335.23449317867
3	15968	703817.370966473066	157.22360917297
3	15974	704481.826874910894	391.42464023136
3	15980	704774.34673013818	223.59977500575
3	15986	705194.278000687392	91.315651066283
3	15996	706109.260381549005	192.40975477921
3	15998	706166.313703537007	439.30728358577
3	16004	707722.831925799284	631.88209452138
3	16010	709220.589265552422	220.63252673262
3	16016	710671.393455471276	291.73942866908
3	16026	711379.233839120624	244.12841477269
3	16028	711582.468346145375	636.49742859571
3	16038	713133.994778958049	647.39690906596
3	16044	713822.718636729728	1392.4351053207
3	16046	713931.957929059803	719.73359859951
3	16056	716979.768685678995	202.38210113009
3	16058	717591.349404695683	1264.8057786155
3	16064	718511.286383854243	356.62128581615
3	16074	721481.558485004305	486.14595805704
3	16076	721583.957518379092	459.99045027008
3	16086	723103.843524754798	139.80869523778
3	16088	723358.041767289204	1256.1244075606
3	16094	723813.87789640789	141.55242818747
3	16108	725192.078275535283	93.440095522557
3	16118	725445.112017215505	1027.9479046186
3	16120	725606.886757768772	660.05455762231
3	16122	725691.10086577473	346.91650749116
3	16124	725967.44697779574	562.86091630406
3	16134	727434.953364430154	178.97621077158
3	16136	727506.130378854055	234.20291706207
3	16142	727892.272662043493	352.06249524156
3	16148	729722.757375321545	258.69883586273
3	16158	732452.102113667814	2.448105205654
3	16160	732617.640525922696	574.79935434668
3	16170	733842.03228127567	169.27346010379
3	16172	733879.192229952516	234.38481219213
3	16182	736964.840622557297	386.12109889763
3	16188	737028.268894923045	32.551332148872
3	16194	737166.593948615394	70.710991464029
3	16196	737441.248145557167	614.82465541089
3	16206	738696.056320159856	449.57992232398
3	16208	739217.985168171071	551.12962138805
3	16214	739810.624674682672	364.64816389621
3	16224	744095.518948290484	284.44107282425
3	16230	744748.095948888068	60.220098400073
3	16236	745341.881739345433	1669.9096998202
3	16238	745522.903401142141	476.46805127981
3	16244	746281.278570883466	378.73364175825
3	16250	748391.022280082087	366.86954289163
3	16256	749513.466647835862	324.41698622824
3	16262	753284.953219184414	1150.1636505251
3	16268	753607.278717322103	56.838374373421
3	16274	754324.889519306767	31.241990128093
3	16280	754517.905293764282	68.790888473471
3	16286	754678.654383822473	115.50109488375
3	16292	755333.449767116102	369.4109913541
3	16298	755811.194414958232	389.56492800697
3	16304	757319.748917358838	108.81206264548
3	16310	758216.14158624837	276.12092579947
3	16316	758976.268429026163	270.39667327729
3	16322	765065.50021252425	248.04219694061
3	16328	766532.494423493856	668.8299012783
3	16334	767036.79931876939	262.24999911773
3	16344	768855.139377291611	74.842664405342
3	16346	769192.352897251857	583.75521786634
3	16352	771145.246972974856	312.03827380049
3	16362	771594.161627424681	80.420435552027
3	16364	771868.984009843041	714.26324611639
3	16374	772947.680792015919	257.01600240382
3	16380	773114.945443196029	83.963439345116
3	16382	773211.146176218214	386.03198918063
3	16388	777266.101628940119	581.04291590915
3	16394	777745.00691311381	33.821669830083
3	16400	779218.97960904667	1202.7896851161
3	16406	780670.105968083389	259.5581022751
3	16412	781026.654536635797	168.36964900039
3	16418	781084.318842959969	51.050943389312
3	16428	785355.489703212577	232.90746795064
3	16430	785693.91220720397	443.15394715342
3	16436	786177.402370614345	40.793373885156
3	16442	787730.3430185574	150.29084186456
3	16452	790917.625048420934	427.01661827743
3	16454	791112.346850266855	743.08638206208
3	16460	791366.736306049357	94.999243286549
3	16466	791491.829993533789	72.104634295112
3	16476	793335.901176153535	139.04220849211
3	16482	793545.807762571328	81.312887148731
3	16484	793924.188124948213	965.22210554775
3	16494	802289.326753297797	152.02606250711
3	16500	803286.526232775617	54.759384173282
3	16506	804400.803385615938	4205.5501530336
3	16508	804551.396672587751	254.59243481569
3	16514	805479.817967695842	234.1759266936
3	16520	809483.589272502327	1074.5980101917
3	16526	810505.688661682288	59.228000712035
3	16532	811467.879243755013	39.275266508799
3	16538	811621.64727143042	40.109205262855
3	16544	813024.844317248415	964.37287746184
3	16554	815654.563378704704	67.088661953124
3	16560	815697.818807820093	245.23988443036
3	16566	816045.964607550579	317.03531836217
3	16568	816066.492166433204	370.30430858044
3	16574	816833.908135781551	90.894278589022
3	16580	817516.880951485021	379.72909312457
3	16586	819733.839591827142	170.92086999692
3	16592	823366.020224184748	111.9134142435
3	16598	823867.650842465423	293.52296696167
3	16604	825811.69514117067	141.71933994624
3	16610	826245.447032092734	103.24674264288
3	16616	827317.175091264528	870.47863972787
3	16622	827462.078092188461	69.591145313145
3	16628	830065.868205826162	135.35208894335
3	16634	830282.182602644322	200.5621467347
3	16644	830513.527319420411	131.3996550638
3	16646	830518.675266069425	97.251757357651
3	16652	831402.130850846017	606.08997515442
3	16662	832254.530801007146	49.057517077752
3	16664	832256.618700668197	163.99320078199
3	16670	832895.487019661441	319.95391858919
3	16676	833468.773013598556	55.11091995437
3	16682	835225.740356194323	181.8342014693
3	16692	840525.830732253876	189.34971480983
3	16694	840636.013801990947	877.73308593187
3	16700	841515.849161387856	411.43417627618
3	16706	843549.03153558823	297.08501749547
3	16712	843970.970482724073	60.902331390378
3	16718	844590.940665252371	430.38578629046
3	16724	847249.921100455942	796.59404806358
3	16730	847854.092479973261	40.215163469981
3	16736	848882.25348459569	575.86202099266
3	16750	849330.787484494786	45.176082143979
3	16752	849484.143148715209	481.63642379304
3	16758	849842.086774179763	149.95108369548
3	16760	850065.300143358978	828.10636261737
3	16770	851093.770703874716	9.150502922294
3	16772	851225.792630280037	487.0856296485
3	16782	856019.453020724115	544.38738342707
3	16784	856388.452246346934	802.18051255925
3	16790	856912.693896512592	248.18748696564
3	16800	857624.476933245035	134.14213021601
3	16802	857721.161680412086	234.1648807073
3	16808	859402.63946299392	2.081581674183
3	16814	860030.101491233014	84.734988073968
3	16824	862302.056840379825	1605.0585453966
3	16826	862872.347432665309	830.0389175135
3	16832	863507.46745217723	127.38287606401
3	16842	865356.159749925811	188.40703059464
3	16844	866404.754931201046	1363.4038422364
3	16850	868814.255303719349	145.1781086823
3	16856	870862.597372346652	68.155102540885
3	16862	874000.174262127477	953.03790255957
3	16872	874662.009588393942	163.01140939367
3	16878	875928.040808110753	1784.6557828654
3	16880	876266.057289913983	499.55957728328
3	16886	877479.06641619984	167.86250719322
3	16892	877627.854630337982	45.588617759114
3	16898	879799.527020661693	204.97380024731
3	16908	880626.391196651097	329.62306692802
3	16910	880626.625066019251	53.95089748656
3	16916	884806.322976785106	700.85712585856
3	16922	887051.760794138425	282.72166757403
3	16928	888191.169026683992	109.76707595024
3	16934	889259.932173099201	369.22248492889
3	16940	890014.755773156566	647.85516328227
3	16946	891757.129940482833	163.14155316687
3	16952	893636.645734845984	496.86038216988
3	16958	894886.768833785821	229.49012600105
3	16968	896042.429010390478	605.72016088608
3	16974	896468.189125725136	181.08725082648
3	16976	896760.027201453573	1366.8457348565
3	16982	898255.177417055617	7.359917885696
3	16988	899425.003191851513	440.40364066601
3	16994	900485.185848042321	90.62027220075
3	17000	901114.324718929956	53.418117779165
3	17014	902480.181348248777	129.28352811817
3	17016	903018.393084624716	1103.5208009354
3	17022	904876.805582917237	147.6331094473
3	17028	905187.675321956249	74.107535332505
3	17034	905994.173436795506	251.4941240635
3	17036	906025.953189646844	4061.9062719659
3	17042	907446.066959264267	825.59632399422
3	17056	908612.115475182338	106.6112753883
3	17058	908626.970400884081	496.90117872391
3	17060	909196.742006972332	769.78571374901
3	17066	911089.124472798527	538.83081223562
3	17072	912884.631617006647	1030.5738852659
3	17078	913526.084352277315	135.82433443881
3	17084	914067.481034373393	482.22359711046
3	17090	914461.377107977131	210.39990668401
3	17096	915025.558340782938	140.89473493483
3	17102	917049.344850624453	1436.0688373058
3	17108	918396.766824413648	176.18846811175
3	17118	923253.901379258284	46.903584233595
3	17120	923442.679890977698	202.20633263728
3	17126	923696.556884144404	243.9797113407
3	17136	925937.343785751731	573.41774266748
3	17138	926689.871223687098	1230.5418450153
3	17144	930019.118345118352	698.11662313363
3	17154	930866.566507040774	264.87781236985
3	17156	931688.281720937501	1098.5202246929
3	17166	932370.298376001543	522.18693417206
3	17168	932384.250200036082	151.94144936449
3	17174	932986.544821894311	29.644123306169
3	17180	933300.507498246824	186.95414820728
3	17190	934458.433066043767	131.95669851875
3	17192	934568.579016351797	491.986563307
3	17198	935484.762684936536	812.22056039714
3	17208	936231.695890350509	88.662700669201
3	17214	936555.229608491395	642.94159013424
3	17220	936662.902825605104	165.10989822427
3	17222	937309.485503256554	717.07172746237
3	17228	937662.220936551391	114.92859336957
3	17234	937998.413482758357	165.5802645935
3	17240	940226.242345508557	172.6911611513
3	17254	941261.685505376385	15.508385831203
3	17256	941285.294445610437	31.50357306792
3	17262	941648.80824973389	663.62595271458
3	17268	941738.048594251901	355.03024520993
3	17270	941863.792420772996	207.97579119798
3	17280	942843.535128516212	127.35857976906
3	17282	942904.745924638557	411.85529276146
3	17296	944568.074012607328	28.83173256887
3	17298	944596.098902979898	588.16097512748
3	17304	944898.922581640341	987.76429220316
3	17306	945449.935933347597	629.66818698096
3	17320	947333.571903042802	546.56949527375
3	17322	947826.561175603533	1173.3439006523
3	17324	947946.205348948554	1435.5132931692
3	17330	948424.651205925857	54.221397393741
3	17336	949174.461265866315	352.72138727951
3	17342	950570.22429562387	137.43848781167
3	17352	952185.94506570336	519.51476386415
3	17354	953014.420948051654	1444.1229493072
3	17360	955741.623656095336	387.80871184768
3	17366	958617.233759960332	488.15793077072
3	17372	960050.986116783655	236.82489387799
3	17378	961903.035840019098	191.68586342755
3	17384	963848.531829271681	1128.5014296073
3	17390	965515.826974973336	165.78014938613
3	17396	965926.967603113095	17.393145230678
3	17402	968450.792971929719	210.52524058471
3	17408	969520.488918907783	642.09288260847
3	17414	970892.747061904103	429.68222716272
3	17424	972424.896881076138	46.145161970962
3	17426	972480.920999794506	1345.890717659
3	17436	973657.541604989597	189.14649221128
3	17438	973965.535828087683	996.78845789294
3	17444	974831.36351541913	264.05064456384
3	17454	976291.295525873742	50.885898915411
3	17456	976381.899590034126	229.93788323017
3	17462	976676.661258845389	117.03156105688
3	17472	977856.162651609346	9.566575338661
3	17474	978041.602141774028	557.25387026896
3	17480	978811.266386098896	59.077463626882
3	17486	983988.292561335064	10.494222518306
3	17492	987030.699494222194	800.47513761968
3	17502	987277.728746164389	76.546132958864
3	17504	987522.330842335699	394.7937631577
3	17510	989604.819933694002	601.84868348961
3	17524	993419.055065199601	1120.6438276936
3	17530	993473.164870394838	3.222599214941
3	17532	993555.634366974089	1399.5467886169
3	17538	993958.258422563563	365.45910024953
3	17544	994190.637922624742	121.88817235216
3	17546	994349.006306559727	1046.1029066474
3	17552	994714.126392240439	341.78701800563
3	17558	995916.010952489503	157.31848047194
3	17564	996094.218185374735	68.57199790094
3	17570	998216.884279541334	241.61677638121
3	17576	998542.588906028133	280.87230937494
3	17586	999600.731144232537	17.801426384622
3	17592	1000637.882010429746	147.27222925784
3	17598	1001266.174932752512	1883.198403556
3	17600	1002005.060707874583	784.9384810298
3	17606	1002545.065556208426	443.02284209019
3	17612	1003328.335561491275	720.33223773221
3	17622	1005824.59212553251	443.74258575587
3	17624	1006353.64473121448	585.75151095611
3	17630	1008532.222072559716	279.10597115127
3	17636	1009778.466313609211	94.22558557868
3	17646	1010841.838876363719	682.56887671721
3	17648	1011142.813051307653	344.79391207708
3	17654	1013006.284008431233	61.751805015329
3	17664	1013823.378474713091	671.66130784137
3	17670	1014373.01875591387	174.63329485355
3	17672	1014634.818641782783	1308.6790557752
3	17678	1018504.764241681132	142.8017105562
3	17684	1019118.330249738956	35.06364903321
3	17690	1020526.325966021757	448.85604976457
3	17700	1022379.968999977612	60.077533812745
3	17702	1022413.20177779039	1312.4247300761
3	17708	1023758.936541979858	272.86224095757
3	17714	1025695.622851347212	42.499395286972
3	17720	1026258.039502942817	14.263845951563
3	17726	1029750.610030718455	448.86808160868
3	17736	1031372.53033811182	169.26673262847
3	17742	1031700.891281276995	831.28297386966
3	17748	1032139.301671219849	51.16547887718
3	17750	1032416.005690656595	857.17409822777
3	17760	1035879.978374080733	111.69218101314
3	17766	1036172.018238237727	291.93883698364
3	17772	1036745.965792911496	953.0197629358
3	17774	1036859.400135199548	385.10055712573
3	17780	1037435.492385427551	15.930269750459
3	17786	1040407.241778589593	56.476784077434
3	17792	1042021.194371697905	23.594501549817
3	17802	1042204.001121350032	59.50818212254
3	17808	1043005.564403296883	967.44723264535
3	17810	1043097.853693776784	778.82084601712
3	17816	1044154.619113119745	177.70654484331
3	17822	1045057.707663133277	662.70867520816
3	17832	1046197.840388169316	128.04426103961
3	17834	1046251.564216670993	186.67573252898
3	17840	1046966.524119840047	40.418373420909
3	17846	1048094.965852079295	135.41871245858
3	17852	1048978.091624267557	262.08405630034
3	17862	1051208.877999035504	699.13290914303
3	17864	1051248.075202811205	247.59467391078
3	17874	1052423.084935942758	320.61498941757
3	17876	1053436.551198369712	1461.3488093304
3	17882	1053627.066782728877	10.38269969022
3	17888	1053978.367972521916	220.61308176199
3	17902	1055709.583885496733	479.89922672604
3	17904	1055736.548708455212	109.7180620977
3	17906	1056135.149895286156	492.9601262586
3	17912	1056550.639998940749	287.93396570585
3	17918	1057582.31770406225	10.716737748275
3	17924	1060592.899273220909	611.88989923757
3	17930	1061815.484021329747	337.77222868507
3	17936	1062342.79943222552	35.385298685939
3	17942	1063031.918775385304	264.99832437315
3	17948	1063756.758963001226	139.19941665988
3	17954	1066739.599009543276	870.33905712491
3	17964	1068071.663266203454	137.83736573326
3	17970	1069111.993729111535	1168.0338380249
3	17976	1069433.926768715306	324.66966380478
3	17978	1069442.979109815134	160.69726962676
3	17984	1071667.780741124189	690.30139317512
3	17990	1073409.620047716592	491.28668185311
3	17996	1075211.097789246615	219.62667954335
3	18002	1075757.087910139808	408.21390861514

