version 2
run General-0-20180514-23:18:45-15076
attr configname General
attr datetime 20180514-23:18:45
attr experiment General
attr inifile omnetpp.ini
attr iterationvars ""
attr iterationvarsf ""
attr measurement ""
attr network AmbulanceProject
attr processid 15076
attr repetition 0
attr replication #0
attr resultdir results
attr runnumber 0
attr seedset 0
param **.low_severity.interArrivalTime exponential(1041s)
param **.low_severity.jobPriority 0
param **.medium_severity.interArrivalTime exponential(58s)
param **.medium_severity.jobPriority 1
param **.high_severity.interArrivalTime exponential(34s)
param **.high_severity.jobPriority 2
param **.ambulance1.serviceTime exponential(411s)
param **.ambulance2.serviceTime exponential(411s)
param **.ambulance3.serviceTime exponential(411s)
param **.ambulance4.serviceTime exponential(411s)
param **.ambulance5.serviceTime exponential(411s)
param **.low_severity.numJobs 1000
param **.low_severity.jobType 0
param **.high_severity.numJobs 1000
param **.high_severity.jobType 2
param **.medium_severity.numJobs 1000
param **.medium_severity.jobType 1

vector 0 AmbulanceProject.low_severity_queue queueLength:vector ETV
attr interpolationmode sample-hold
attr title "queue length, vector"
vector 1 AmbulanceProject.medium_severity_queue queueLength:vector ETV
attr interpolationmode sample-hold
attr title "queue length, vector"
vector 2 AmbulanceProject.high_severity_queue queueLength:vector ETV
attr interpolationmode sample-hold
attr title "queue length, vector"
vector 3 AmbulanceProject.hospital lifeTime:vector ETV
attr interpolationmode none
attr title "lifetime of arrived jobs, vector"
attr unit s
0	0	0	0
0	125	828.505359252972	1
0	338	2011.017797573322	2
0	407	2302.786163399958	3
1	0	0	0
1	29	214.171046943903	1
1	32	217.557357751302	2
1	56	409.822269987142	3
1	68	458.509375455356	4
1	71	462.78312607233	5
1	74	486.654649854402	6
1	77	491.941989369611	7
1	89	552.52951485148	8
1	113	735.239370714683	9
1	128	828.851491058452	10
1	131	836.15220680586	11
1	140	910.115413534831	12
1	146	919.089735003834	13
1	176	1086.966122727084	14
1	185	1122.292903271702	15
1	188	1130.71902885465	16
1	191	1131.819205868314	17
1	197	1154.541912887564	18
1	200	1163.94582927543	19
1	215	1218.871636551577	20
1	230	1353.948612256	21
1	239	1387.271491846991	22
1	242	1393.336042941952	23
1	245	1396.938729789002	24
1	275	1599.951123487369	25
1	287	1654.24269395411	26
1	290	1656.515317026069	27
1	296	1690.000127052847	28
1	329	1948.360944131058	29
1	332	1979.394695401887	30
1	341	2015.815307099374	31
1	356	2072.473423395475	32
1	368	2134.421610830147	33
1	371	2147.11668542757	34
1	413	2320.373699154987	35
1	416	2361.703547568314	36
1	449	2579.895330069544	37
1	452	2605.729658860891	38
1	458	2626.097872045007	39
1	461	2633.428412957676	40
1	473	2701.107077497497	41
2	0	0	0
2	23	190.88059275926	1
2	26	202.888003489936	2
2	35	278.487833839171	3
2	38	289.311942627792	4
2	41	305.754414196039	5
2	42	320.258524440491	4
2	47	327.835590036568	5
2	50	384.690770847616	6
2	51	396.383652499318	5
2	57	409.995760242951	4
2	62	410.281690700251	5
2	63	422.572003366954	4
2	80	498.622329619116	5
2	83	499.316799624684	6
2	86	514.931236291361	7
2	92	575.705816848275	8
2	93	584.345846834735	7
2	96	615.032155948484	6
2	101	626.902481641946	7
2	102	646.501727691043	6
2	105	665.129387627193	5
2	110	696.292816982945	6
2	116	750.870961923037	7
2	119	771.914563550345	8
2	122	796.903353870798	9
2	134	848.465576986464	10
2	137	883.194260714337	11
2	143	912.853181345769	12
2	147	928.871857597897	11
2	152	939.061559733657	12
2	155	964.147687653358	13
2	156	965.07482878355	12
2	161	967.953857114868	13
2	164	989.771476983927	14
2	167	1000.219008957113	15
2	170	1007.229920546149	16
2	173	1057.830584621706	17
2	179	1103.230450898919	18
2	182	1111.528099583961	19
2	194	1140.099479574776	20
2	201	1165.811770983954	19
2	206	1172.786431503012	20
2	207	1185.192339797206	19
2	212	1205.411062733532	20
2	216	1269.154405066699	19
2	221	1303.260173456973	20
2	224	1323.583540068799	21
2	227	1338.73116890054	22
2	233	1371.013984739429	23
2	234	1385.989287062784	22
2	248	1450.109920837037	23
2	249	1453.601315962604	22
2	254	1487.472944733769	23
2	255	1513.052741116414	22
2	260	1525.233257887134	23
2	263	1533.264285893946	24
2	266	1548.340022867046	25
2	269	1553.032998273614	26
2	270	1590.084854249763	25
2	278	1600.260449726508	26
2	281	1615.631919774144	27
2	284	1628.997746722483	28
2	293	1657.708291702424	29
2	299	1691.907905878087	30
2	300	1739.806515448421	29
2	303	1745.838221569941	28
2	306	1784.044544900566	27
2	311	1800.46809170791	28
2	314	1834.740746052195	29
2	317	1840.721806596666	30
2	318	1877.589592639633	29
2	321	1880.342469117325	28
2	324	1888.782144004002	27
2	333	2008.827243176828	26
2	344	2022.965218504935	27
2	347	2028.851552013904	28
2	350	2042.876593831269	29
2	353	2046.853077764212	30
2	359	2085.040800016345	31
2	362	2098.013698691068	32
2	365	2103.069915845639	33
2	374	2154.295517176904	34
2	377	2169.935991740074	35
2	378	2180.604877457709	34
2	383	2206.869150689935	35
2	386	2207.333746356584	36
2	389	2210.806672328432	37
2	390	2226.887915908342	36
2	393	2238.699884957508	35
2	398	2243.960138089747	36
2	401	2247.395320450252	37
2	402	2273.421234835469	36
2	408	2312.732848543321	35
2	419	2368.897325109961	36
2	422	2370.846440608369	37
2	425	2402.414709503016	38
2	428	2422.812903648812	39
2	431	2468.517242901991	40
2	434	2469.203707258961	41
2	437	2470.562901426943	42
2	440	2490.38076664842	43
2	443	2501.682714841186	44
2	444	2572.623189661994	43
2	453	2625.254520204902	42
2	464	2633.996099017927	43
2	467	2647.007931279227	44
2	468	2698.943589282381	43
2	476	2719.231995977284	44
3	43	320.258524440491	226.4809280215
3	52	396.383652499318	323.53966853257
3	58	409.995760242951	379.4447070345
3	64	422.572003366954	236.53838991891
3	94	584.345846834735	426.68347257285
3	97	615.032155948484	336.54432210931
3	103	646.501727691043	340.747313495
3	106	665.129387627193	462.24138413726
3	148	928.871857597897	518.59016689765
3	157	965.07482878355	774.19423602429
3	202	1165.811770983954	876.49982835616
3	208	1185.192339797206	685.87554017252
3	217	1269.154405066699	754.22316877534
3	235	1385.989287062784	810.28347021451
3	250	1453.601315962604	1125.765725926
3	256	1513.052741116414	1014.4304114973
3	271	1590.084854249763	818.17029069942
3	301	1739.806515448421	1112.9040338065
3	304	1745.838221569941	948.93486769914
3	307	1784.044544900566	935.5789679141
3	319	1877.589592639633	1181.2967756567
3	322	1880.342469117325	967.48928777156
3	325	1888.782144004002	1137.911182081
3	334	2008.827243176828	1040.873386062
3	379	2180.604877457709	1297.4106167434
3	391	2226.887915908342	1842.1971450607
3	394	2238.699884957508	1274.5521973042
3	403	2273.421234835469	1283.6497578515
3	409	2312.732848543321	1373.6712888097
3	445	2572.623189661994	1461.095090078
3	454	2625.254520204902	1485.1550406301
3	469	2698.943589282381	1641.1130046607

