version 2
run General-0-20180514-21:40:10-8479
attr configname General
attr datetime 20180514-21:40:10
attr experiment General
attr inifile omnetpp.ini
attr iterationvars ""
attr iterationvarsf ""
attr measurement ""
attr network AmbulanceProject
attr processid 8479
attr repetition 0
attr replication #0
attr resultdir results
attr runnumber 0
attr seedset 0
param **.low_severity.interArrivalTime exponential(1041s)
param **.medium_severity.interArrivalTime exponential(58s)
param **.high_severity.interArrivalTime exponential(34s)
param **.ambulance.serviceTime exponential(411s)
param **.low_severity.numJobs 1000
param **.low_severity.jobType 0
param **.high_severity.numJobs 1000
param **.high_severity.jobType 2
param **.medium_severity.numJobs 1000
param **.medium_severity.jobType 1

vector 0 AmbulanceProject.low_severity_queue queueLength:vector ETV
attr interpolationmode sample-hold
attr title "queue length, vector"
vector 1 AmbulanceProject.medium_severity_queue queueLength:vector ETV
attr interpolationmode sample-hold
attr title "queue length, vector"
vector 2 AmbulanceProject.high_severity_queue queueLength:vector ETV
attr interpolationmode sample-hold
attr title "queue length, vector"
vector 3 AmbulanceProject.hospital lifeTime:vector ETV
attr interpolationmode none
attr title "lifetime of arrived jobs, vector"
attr unit s
0	0	0	0
0	109	828.505359252972	1
0	421	2953.074156017076	2
0	544	3694.873676676957	3
0	565	3841.998949493711	4
0	649	4369.994277803808	5
0	823	5556.326167841572	6
0	886	5959.328593768765	7
0	1903	13002.100125023275	8
0	2005	13498.114329507655	9
0	2212	14688.696265538404	10
0	2380	15940.721314504732	11
0	2389	15957.859593132849	12
0	2689	17901.032322590973	13
0	3016	20267.961483112818	14
0	3076	20690.322607078275	15
0	3253	21704.130220808858	16
0	3502	23572.384932479885	17
0	3547	23868.257685492898	18
0	3721	25175.749103816097	19
0	4162	28064.26866488124	20
0	4255	28537.182032602435	21
0	4264	28596.189952887777	22
0	4498	30141.881403971833	23
0	4600	30971.973217316059	24
0	5156	34496.529497240031	25
0	5168	34781.310518841327	26
0	5258	36013.166962657185	27
0	5270	36381.88771992061	28
0	5276	36430.92489674607	29
0	5294	36649.968893012405	30
0	5312	36938.53767250886	31
0	5504	40391.604812705198	32
0	5552	41279.984517060156	33
0	5573	41571.211348350132	34
0	5708	44001.517687520296	35
0	5840	46314.356525321476	36
0	5930	47937.849409595884	37
0	5984	48496.032766530134	38
0	6050	49419.037638656087	39
0	6065	49682.088321027848	40
0	6095	50035.026699622607	41
0	6101	50325.765405616894	42
0	6149	51250.469155963176	43
0	6191	51952.278282836564	44
0	6455	55439.904257876758	45
0	6594	59283.977601659829	46
0	6603	59649.270405905643	47
0	6615	61364.043085063656	48
0	6624	63544.175497958817	49
0	6636	65136.580117433614	50
0	6639	65207.741164933534	51
0	6642	66094.685112921929	52
0	6651	66760.345269049168	53
0	6660	67451.202498966477	54
0	6666	68024.722684480351	55
0	6678	68485.666993329073	56
0	6684	69091.815613057995	57
0	6693	69409.21234314418	58
0	6720	73389.710665333952	59
0	6729	75377.240425367773	60
0	6738	75670.183794839682	61
0	6747	76707.543355845188	62
0	6750	77177.36912643176	63
0	6789	81771.984089892102	64
0	6792	81958.85264241615	65
0	6795	82376.434541307144	66
0	6813	84710.538359357211	67
0	6816	84991.839564959697	68
0	6837	86349.313447178908	69
0	6885	89334.074968867297	70
0	6900	90621.627764736072	71
0	6918	91667.922522704719	72
0	6927	93344.67862694208	73
0	6936	94962.696202760059	74
0	6942	96787.921793729853	75
0	6945	96902.228431291289	76
0	6948	96907.776144189781	77
0	6960	97954.055925775353	78
0	6963	98130.585208078031	79
0	6966	98262.397437658095	80
0	6975	98840.287814700779	81
0	6978	99296.482840282112	82
0	6981	99410.310478874052	83
0	6984	99446.074041325928	84
0	6987	99465.084886896971	85
0	6990	99555.144687196181	86
0	6999	100484.785679239147	87
0	7011	102408.24827098653	88
0	7020	102703.255023016676	89
0	7029	103215.097593542645	90
0	7041	104214.004736176725	91
0	7044	105481.192705465552	92
0	7050	106725.305333002074	93
0	7056	107239.097585630591	94
0	7062	107557.861745154818	95
0	7083	110570.140955542913	96
0	7098	112231.369751850974	97
0	7101	112462.349973655788	98
0	7116	114432.978415286613	99
0	7125	115524.458813715195	100
0	7131	116845.834813488627	101
0	7137	117252.474398832991	102
0	7143	118421.470144574422	103
0	7155	119585.701587156049	104
0	7158	119585.764642394705	105
0	7164	120083.221784046026	106
0	7173	120938.929135505313	107
0	7182	121835.605329089726	108
0	7188	121856.065514912322	109
0	7200	122386.486700179638	110
0	7218	125353.859500610015	111
0	7236	126455.684931156625	112
0	7251	128213.534836129911	113
0	7263	128720.851061296734	114
0	7287	131128.387735865069	115
0	7290	131193.788594173695	116
0	7296	131387.531322743958	117
0	7299	131554.730088620963	118
0	7314	133932.239740822306	119
0	7329	138173.785130040354	120
0	7341	138945.16989723148	121
0	7386	143342.340487485286	122
0	7395	143471.351964807797	123
0	7416	144729.699115967872	124
0	7425	145264.401724565004	125
0	7434	145723.211905176146	126
0	7443	146062.464990057147	127
0	7449	147144.46861536308	128
0	7461	148123.447228020698	129
0	7467	148552.598826323958	130
0	7473	148928.746121088949	131
0	7500	153022.713610859607	132
0	7512	153866.279772891205	133
0	7533	157105.352113685876	134
0	7551	159597.475718193503	135
0	7554	159761.082840873132	136
0	7560	160073.657747477077	137
0	7566	161551.480433359382	138
0	7572	162192.689652701272	139
0	7578	163080.038318534662	140
0	7587	166309.356246251377	141
0	7605	169084.036191327883	142
0	7611	169477.918015385063	143
0	7629	171906.39021164748	144
0	7635	172013.639724033604	145
0	7641	172328.372537369471	146
0	7644	172532.334984409302	147
0	7656	173967.266729449534	148
0	7665	174339.534167935487	149
0	7671	175176.44139143963	150
0	7677	175445.647395239804	151
0	7683	175713.89105139958	152
0	7692	176037.158660625434	153
0	7695	176149.522196520716	154
0	7701	177015.16848205313	155
0	7707	177155.14015311158	156
0	7710	177393.974203030216	157
0	7713	177550.673144145864	158
0	7743	180426.079950164242	159
0	7746	180855.924335692951	160
0	7764	182797.727405177781	161
0	7776	184648.667778687325	162
0	7782	184820.749810966835	163
0	7815	190587.306173119207	164
0	7827	192016.738468874528	165
0	7836	192759.37862302668	166
0	7842	192866.529080205259	167
0	7860	195112.253884173605	168
0	7863	195169.749443210028	169
0	7881	196242.579524171365	170
0	7884	196502.328478039252	171
0	7896	197757.500127640379	172
0	7911	201295.291122961105	173
0	7917	202086.433421887138	174
0	7932	202552.81961559719	175
0	7935	202988.694876218014	176
0	7947	205111.348875028794	177
0	7950	205687.156152941418	178
0	7989	209059.369595411207	179
0	7992	209147.960444365635	180
0	7995	209680.508413282387	181
0	7998	210429.893630614776	182
0	8013	211571.068355094795	183
0	8025	212348.041723771656	184
0	8055	215086.403711217358	185
0	8064	215653.209236518933	186
0	8082	217235.075876869145	187
0	8097	217791.032870530215	188
0	8115	219480.784566517296	189
0	8121	219975.74248875233	190
0	8136	220932.033901009955	191
0	8145	221415.141518904636	192
0	8148	221545.252949536606	193
0	8157	222760.042642240631	194
0	8160	222875.95576240428	195
0	8169	224393.336931391361	196
0	8184	225691.482288076238	197
0	8190	227092.315584265741	198
0	8214	230364.75070075372	199
0	8223	231268.408539685415	200
0	8229	231904.377862561851	201
0	8244	233591.400237848455	202
0	8250	235061.047500635892	203
0	8253	235152.146625050678	204
0	8256	235166.441215426162	205
0	8268	235922.13017060736	206
0	8271	236255.887946928826	207
0	8274	236449.775500147823	208
0	8289	237709.517336701004	209
0	8298	238296.974611902237	210
0	8307	239023.535625415038	211
0	8322	240269.933045221146	212
0	8328	240380.895130041967	213
0	8331	240779.891073023668	214
0	8346	241549.149515182768	215
0	8352	241947.610596850846	216
0	8370	245249.336129169036	217
0	8379	246249.757407799623	218
0	8382	246426.435126112565	219
0	8391	248698.809438527145	220
0	8403	249126.767201855943	221
0	8421	251097.073428355626	222
0	8442	253783.761741226047	223
0	8463	256166.666706808246	224
0	8469	256543.065708913811	225
0	8478	256865.956174694453	226
0	8481	257178.844352297687	227
0	8490	257961.108464571391	228
0	8496	258206.311569430748	229
0	8499	258354.045910645629	230
0	8502	258441.168511212234	231
0	8505	258664.696674836713	232
0	8508	258825.436312376573	233
0	8511	260029.526390214608	234
0	8535	263013.567045014658	235
0	8541	263093.121355624807	236
0	8559	266493.027809173779	237
0	8562	266563.12404000339	238
0	8568	267357.950719856107	239
0	8598	270362.308046565226	240
0	8607	271070.237266732533	241
0	8616	271818.134498640744	242
0	8634	274666.14447208838	243
0	8637	275366.453199285213	244
0	8646	275853.146657879647	245
0	8655	276379.747698528152	246
0	8658	276635.900589993249	247
0	8670	276984.961051265693	248
0	8691	279467.604103885759	249
0	8700	280306.548267253903	250
0	8709	280994.233502255363	251
0	8712	281041.585321655577	252
0	8736	283625.284038698994	253
0	8739	284429.012077486735	254
0	8742	284749.460827335811	255
0	8763	287638.445729839663	256
0	8766	287647.756304895065	257
0	8772	288286.746983504217	258
0	8784	290057.226740508526	259
0	8796	291236.552315123707	260
0	8799	291464.236814339865	261
0	8808	293067.066745333176	262
0	8835	294994.311077023555	263
0	8838	295034.385032942971	264
0	8841	295438.117005487363	265
0	8847	295957.387468959701	266
0	8853	296131.639853519396	267
0	8856	296304.186057146555	268
0	8862	296461.724842315916	269
0	8880	297760.786539130796	270
0	8886	298119.357225701056	271
0	8892	298159.734775127884	272
0	8913	301424.319829904763	273
0	8919	302110.331223418995	274
0	8946	306063.982977911018	275
0	8949	306527.678753523191	276
0	8955	306830.724967748047	277
0	8961	308153.910358743399	278
0	8964	308662.582205710742	279
0	8967	308694.748073791329	280
0	8982	310178.166856780148	281
0	8985	310223.229228781779	282
0	8988	310391.797470444969	283
0	8991	310660.828596969399	284
0	9003	311912.555155380413	285
0	9006	312127.986912900057	286
0	9012	312389.072418419346	287
0	9018	313098.108364261314	288
0	9039	315860.743635426377	289
0	9045	317645.823953438773	290
0	9054	318338.227423139876	291
0	9057	318386.716015442496	292
0	9063	319415.328911575575	293
0	9072	320346.019084795609	294
0	9087	321303.206904510134	295
0	9093	321655.556706452859	296
0	9099	322271.746835342968	297
0	9102	322409.321214824155	298
0	9108	322806.609962173227	299
0	9135	326841.718220070172	300
0	9141	326974.468023342752	301
0	9144	327307.859871990446	302
0	9162	329794.465475823354	303
0	9168	330376.674124887502	304
0	9186	333047.898074028285	305
0	9201	335216.362120105202	306
0	9213	336849.030849333551	307
0	9219	337350.605516418665	308
0	9243	340192.543280587609	309
0	9270	341267.704701589146	310
0	9291	343333.634130078507	311
0	9294	343500.357278972318	312
0	9303	345201.489269988975	313
0	9306	345637.173599175996	314
0	9312	347593.556561926401	315
0	9324	348150.715232476025	316
0	9336	350062.610812546591	317
0	9342	350511.49027108643	318
0	9363	353137.369907507699	319
0	9378	353851.8354690288	320
0	9390	354675.862136957442	321
0	9396	354749.838771846896	322
0	9402	355020.443668375776	323
0	9405	355481.754445446033	324
0	9414	356623.346243527377	325
0	9423	357553.855532711521	326
0	9432	358028.486900209987	327
0	9444	358443.759745153588	328
0	9447	358487.204546016813	329
0	9468	360491.220673163817	330
0	9480	362020.198874799729	331
0	9495	364041.706888898549	332
0	9498	364321.226140651692	333
0	9525	366706.058997143595	334
0	9528	367679.96857971535	335
0	9531	367826.827864924268	336
0	9534	368404.383062225979	337
0	9543	369808.077786979852	338
0	9546	369968.796778675466	339
0	9552	370454.8352112191	340
0	9558	370683.039425486646	341
0	9564	370791.286313363759	342
0	9585	372228.630291540223	343
0	9597	374029.530394726	344
0	9603	374495.148234221327	345
0	9612	374701.616803646209	346
0	9621	377684.91135728292	347
0	9624	378253.742367775808	348
0	9627	378484.59429572744	349
0	9642	379401.706423546875	350
0	9651	380497.293309100735	351
0	9669	382056.701610930274	352
0	9681	382686.420162899839	353
0	9687	383193.771308821421	354
0	9690	383267.408144426064	355
0	9726	386021.902009893244	356
0	9735	386757.156796722877	357
0	9747	388213.955918116176	358
0	9753	389662.854775723274	359
0	9765	391545.204414583187	360
0	9768	391574.126656740025	361
0	9783	393141.094923539807	362
0	9822	396037.290807374342	363
0	9831	397200.947782468681	364
0	9861	400342.710792347031	365
0	9864	400464.312101551744	366
0	9885	403828.846644998512	367
0	9900	405020.14420214195	368
0	9903	405193.126119960655	369
0	9906	406307.450309730221	370
0	9912	406536.519474206839	371
0	9921	407318.772852035359	372
0	9930	408296.780339053622	373
0	9954	411639.739141709985	374
0	9957	412499.279643473459	375
0	9963	412982.400218136239	376
0	9972	414154.833250365382	377
0	9981	414737.827585986717	378
0	9990	415428.505888308244	379
0	9996	415961.090632905313	380
0	10014	417198.402528910773	381
0	10023	419181.655192357637	382
0	10035	420140.215653763483	383
0	10077	424692.234551473709	384
0	10083	425263.38888177324	385
0	10086	425407.919962609649	386
0	10119	427401.652883687666	387
0	10137	430083.438383710581	388
0	10149	431230.155878790707	389
0	10164	432215.641442499196	390
0	10191	433455.939744594751	391
0	10197	434315.478348562758	392
0	10200	434572.504074501865	393
0	10212	436101.855371573698	394
0	10215	436136.729258596317	395
0	10218	436435.932833425346	396
0	10227	436822.505120754965	397
0	10248	438673.664036368327	398
0	10275	441701.192641462664	399
0	10278	441830.567744296657	400
0	10284	442005.69533664934	401
0	10290	442243.394528629907	402
0	10293	442550.204478344802	403
0	10299	443321.030632430428	404
0	10311	444296.987438605742	405
0	10314	444498.260336531992	406
0	10326	446216.448454597479	407
0	10329	446344.285422682454	408
0	10359	449598.989119432842	409
0	10365	449647.659178701887	410
0	10404	451614.677917204167	411
0	10410	451717.58193178946	412
0	10419	452425.863781801137	413
0	10425	453356.480853256878	414
0	10434	453529.204817182435	415
0	10437	454486.263618145695	416
0	10443	455566.148647569145	417
0	10446	455574.425689731753	418
0	10455	455857.341064852536	419
0	10458	456184.571694760097	420
0	10485	458489.603636955234	421
0	10497	459086.768526791174	422
0	10500	459121.399120543793	423
0	10509	459626.234026402954	424
0	10524	460378.670040802958	425
0	10530	460769.013416254949	426
0	10548	463014.412987664331	427
0	10563	464631.482430462442	428
0	10575	464859.226341262478	429
0	10578	465126.15679757309	430
0	10581	465217.733126680019	431
0	10587	466229.958227678161	432
0	10590	466540.796328068762	433
0	10599	467796.332032851431	434
0	10626	470684.107296704661	435
0	10635	471343.807050331269	436
0	10638	471685.30783452366	437
0	10644	471889.613856316059	438
0	10650	472085.053988418536	439
0	10662	472673.590496887539	440
0	10665	472753.763657540222	441
0	10671	473257.09194743593	442
0	10686	475270.764250960017	443
0	10710	479308.603200924136	444
0	10716	479787.269563247326	445
0	10719	480044.956532729695	446
0	10740	482245.16978013721	447
0	10746	483373.052266271462	448
0	10752	483436.38341766309	449
0	10764	485170.597418346651	450
0	10776	487620.791061605267	451
0	10785	488478.087222251167	452
0	10809	491546.138842997652	453
0	10824	492531.1463651328	454
0	10827	492941.622887011464	455
0	10842	493776.457794248457	456
0	10851	494629.321613710709	457
0	10860	495826.886634657278	458
0	10863	496842.305156298816	459
0	10875	499554.410810592573	460
0	10896	503510.757268788269	461
0	10899	503524.712468220203	462
0	10902	504177.270463267631	463
0	10908	505147.554626834717	464
0	10947	509850.687783586851	465
0	10953	510205.979610689606	466
0	10956	510409.590152960427	467
0	10968	511254.019330941964	468
0	10974	511941.788519325367	469
0	10980	512333.655506299812	470
0	10992	513081.38215934948	471
0	11001	515141.749875016475	472
0	11010	515875.459399721102	473
0	11025	516828.22908684115	474
0	11028	517342.159952334564	475
0	11034	517558.134331283509	476
0	11043	518803.617248530334	477
0	11061	520530.065322337284	478
0	11067	521022.944656005758	479
0	11076	521769.836750272906	480
0	11091	522749.214687301663	481
0	11112	525054.388236776268	482
0	11118	525666.613201785899	483
0	11145	528436.783809825408	484
0	11154	529190.386402330343	485
0	11199	531792.399771291336	486
0	11208	533424.101785063042	487
0	11214	534185.836366987616	488
0	11223	536310.505634050987	489
0	11232	536959.10242090436	490
0	11235	537183.867353893961	491
0	11241	537611.132949333182	492
0	11250	538189.892074900856	493
0	11253	538237.217256423964	494
0	11262	539182.831439524719	495
0	11271	540137.170159090306	496
0	11286	542006.223035008848	497
0	11289	542121.509971826796	498
0	11292	542247.760531344822	499
0	11295	542338.563410141399	500
0	11301	544091.761215268053	501
0	11322	545253.07355881715	502
0	11331	545558.519603137693	503
0	11337	545944.57439819866	504
0	11340	546068.686630104757	505
0	11349	547041.402672701468	506
0	11373	549316.703967403799	507
0	11388	551056.00412730766	508
0	11397	552377.001673796033	509
0	11421	554354.719233993086	510
0	11451	558057.713246634028	511
0	11472	559778.936245296168	512
0	11475	560128.418074414425	513
0	11499	562998.439924237457	514
0	11511	563277.092389434957	515
0	11520	563775.482956888395	516
0	11526	564668.077026988184	517
0	11532	564882.47601014344	518
0	11535	564892.147961599831	519
0	11547	566436.950694572877	520
0	11559	567579.525264348148	521
0	11565	568417.698528028677	522
0	11571	569659.571122589213	523
0	11592	570709.646880611549	524
0	11619	572965.887584039526	525
0	11643	576423.758556971258	526
0	11655	577140.091002735402	527
0	11658	577314.113210652285	528
0	11682	578291.911917326497	529
0	11691	579082.535238244979	530
0	11694	579541.418203696077	531
0	11700	580617.462144252666	532
0	11715	581921.639891326132	533
0	11733	583758.52516156596	534
0	11736	583866.825109351505	535
0	11790	590445.308169344521	536
0	11796	590616.311883766149	537
0	11799	590800.385948687668	538
0	11808	592590.709078664044	539
0	11811	592969.416443443469	540
0	11820	594446.241242195799	541
0	11823	594528.086690154326	542
0	11844	595976.840808768788	543
0	11847	596816.836162597632	544
0	11856	597125.108733003424	545
0	11859	598457.820282456222	546
0	11865	598570.030051947069	547
0	11877	600396.273025060348	548
0	11895	602246.702337770938	549
0	11901	602810.830090822505	550
0	11931	605504.870335439174	551
0	11934	605657.974414743682	552
0	11937	605855.956237599935	553
0	11943	607015.033157374897	554
0	11952	607219.993216695671	555
0	11964	608344.071306928548	556
0	11976	609975.077939920498	557
0	11991	610656.031242425412	558
0	12000	611544.317734782588	559
0	12006	612217.244993298768	560
0	12012	612988.174063085642	561
0	12018	613288.373921259314	562
0	12027	614255.440466158884	563
0	12033	614514.008627237422	564
0	12072	616439.297231207088	565
0	12075	616480.93720762036	566
0	12090	617175.670024621113	567
0	12093	617820.698957445886	568
0	12105	618993.772393558525	569
0	12114	620485.186630434567	570
0	12117	620522.511670048218	571
0	12120	620692.570084942575	572
0	12123	620899.996516323783	573
0	12126	621084.29277354065	574
0	12129	621514.503936232521	575
0	12132	621641.305265661876	576
0	12141	622538.185906882155	577
0	12165	623777.645049898125	578
0	12180	625331.097441052735	579
0	12216	629607.274622900312	580
0	12225	630408.871511653652	581
0	12228	630440.422555382983	582
0	12231	630965.593200603744	583
0	12237	631710.852889678904	584
0	12246	632529.818526625614	585
0	12252	633078.832725420123	586
0	12267	634413.326703121371	587
0	12273	635445.85807008184	588
0	12279	635722.370406533887	589
0	12288	636477.520993086437	590
0	12294	636567.908427392967	591
0	12318	640398.681125417496	592
0	12324	641874.913843430219	593
0	12327	641874.990564784677	594
0	12339	643407.036335872251	595
0	12348	644063.920192974525	596
0	12351	644191.040415557395	597
0	12354	644644.316602522591	598
0	12357	645165.091954753474	599
0	12363	645345.970094062662	600
0	12369	645567.01893540581	601
0	12381	646396.758985989367	602
0	12402	647927.875661786769	603
0	12420	649628.711673953421	604
0	12426	650389.379197260404	605
0	12447	651528.410908218206	606
0	12450	651681.107979393787	607
0	12468	652623.539606985033	608
0	12489	654406.852362496372	609
0	12495	655141.411191655896	610
0	12501	655587.789178349152	611
0	12507	656379.810982175619	612
0	12522	658104.323121488474	613
0	12531	659376.238131674121	614
0	12549	660371.324258961104	615
0	12555	660583.944758450155	616
0	12558	661259.395208263041	617
0	12561	661619.703828056127	618
0	12573	662078.356862111394	619
0	12582	662984.575754191856	620
0	12591	663652.155438253134	621
0	12609	666119.369475719	622
0	12612	666353.890379161227	623
0	12621	667175.073930558905	624
0	12624	667631.037629612612	625
0	12630	668818.393889894816	626
0	12639	670220.482337011583	627
0	12651	670773.603601600381	628
0	12660	671229.368466803697	629
0	12666	671441.30704496842	630
0	12672	671723.153440640008	631
0	12675	671934.199362972578	632
0	12687	673021.623206350577	633
0	12693	673281.267923410919	634
0	12741	676856.585797972899	635
0	12744	676923.464608983376	636
0	12747	677471.005260201019	637
0	12771	682177.313119344989	638
0	12783	683044.918425365864	639
0	12789	683780.675535757201	640
0	12798	685603.935581921951	641
0	12801	685858.954206541003	642
0	12804	686411.981092542886	643
0	12807	686539.068625034769	644
0	12813	686704.946097887829	645
0	12822	687239.920741811291	646
0	12825	687441.573662576783	647
0	12828	687441.768049871817	648
0	12831	687842.947780365402	649
0	12867	691061.853228392869	650
0	12882	692120.255109771685	651
0	12903	694079.585066645871	652
0	12906	694632.428794371376	653
0	12912	695214.309943386493	654
0	12918	697430.798494105553	655
0	12921	697438.40575843555	656
0	12924	697606.014351489976	657
0	12927	697641.385514263237	658
0	12942	700188.53768396878	659
0	12948	700485.625334944844	660
0	12954	700824.617211948104	661
0	12963	701223.649803961632	662
0	12975	702196.429326710923	663
0	12981	703021.181995435889	664
0	12990	704418.816838648322	665
0	12996	704976.309104934958	666
0	13005	705545.658132839265	667
0	13035	708806.5465058423	668
0	13050	710910.065910070218	669
0	13062	712248.781235265956	670
0	13089	716033.820865356225	671
0	13101	716565.496447439801	672
0	13104	717076.661775807624	673
0	13122	718119.726975559107	674
0	13131	718928.597777585002	675
0	13143	720821.707921990147	676
0	13149	721324.723413697169	677
0	13155	723182.484429251607	678
0	13158	723255.382737906831	679
0	13164	724348.843588315848	680
0	13176	725082.783471753656	681
0	13203	727384.145399825967	682
0	13212	728288.923376119983	683
0	13224	729346.604535632709	684
0	13230	729854.071429667761	685
0	13236	730643.528070213972	686
0	13245	731722.033025428768	687
0	13248	732320.236450905957	688
0	13260	733212.539135350732	689
0	13263	733285.687887572006	690
0	13269	734484.218624357649	691
0	13275	734746.571841291493	692
0	13281	735605.616854216477	693
0	13320	738239.971943768992	694
0	13332	738843.089650105736	695
0	13362	742330.804757111023	696
0	13374	745479.157579855296	697
0	13377	746393.847553851919	698
0	13380	746675.719097815786	699
0	13383	747052.308788353542	700
0	13386	747129.817732451148	701
0	13389	747546.654112264861	702
0	13392	747713.846322256953	703
0	13407	750089.340911236717	704
0	13416	750547.275049146667	705
0	13419	750884.624020790836	706
0	13434	752544.301639777181	707
0	13458	755123.425680583633	708
0	13461	755459.98725650928	709
0	13470	755820.961203563882	710
0	13479	757381.900693351389	711
0	13482	757888.614422768487	712
0	13488	758399.03339522506	713
0	13497	759607.17870503025	714
0	13500	760529.714009806804	715
0	13509	761954.956691180598	716
0	13527	763969.802096875228	717
0	13530	764313.417999004156	718
0	13533	764547.019649413585	719
0	13536	764618.94176024341	720
0	13548	766550.284912589568	721
0	13554	767025.207937436943	722
0	13563	767809.359154677322	723
0	13599	771866.565028867191	724
0	13608	773515.910784710148	725
0	13617	773833.701319218723	726
0	13644	776446.461268385355	727
0	13650	777353.701301312585	728
0	13653	777984.285650447976	729
0	13665	779368.806344823674	730
0	13689	782494.387061163104	731
0	13692	782712.085136327616	732
0	13698	783472.610215701306	733
0	13704	783835.490646678969	734
0	13710	784893.505561310007	735
0	13713	785809.314590741899	736
0	13719	785890.701464311056	737
0	13722	786284.130434612927	738
0	13725	786340.167704457598	739
0	13731	786883.210505446595	740
0	13764	790302.42113826665	741
0	13803	794383.148224045361	742
0	13806	794690.761892360319	743
0	13824	795849.392714900665	744
0	13833	796753.076090297658	745
0	13836	796916.253635427142	746
0	13842	797481.328618755515	747
0	13854	799996.422532511919	748
0	13860	801005.985495009966	749
0	13881	802869.055342614847	750
0	13884	803384.011117709145	751
0	13887	803677.742870021879	752
0	13896	805052.88399881244	753
0	13899	805785.151214095035	754
0	13902	805910.612208111841	755
0	13914	806588.895469498228	756
0	13929	807922.079854918878	757
0	13938	810066.814833207081	758
0	13953	810862.828376246613	759
0	13959	810997.226883281377	760
0	13965	811987.763147403144	761
0	13986	813299.658604805556	762
0	13989	813727.723246662645	763
0	13992	813763.004216985854	764
0	13995	813982.699667079949	765
0	13998	814262.669639671084	766
0	14031	819114.352186387642	767
0	14034	819467.048733986209	768
0	14037	819558.883202725172	769
0	14046	819973.831700607106	770
0	14052	820996.034873148247	771
0	14058	822010.958386227764	772
0	14079	823907.203823542363	773
0	14094	824929.297427679331	774
0	14097	825004.635684781047	775
0	14100	825143.825021834477	776
0	14103	825411.172899972645	777
0	14121	826801.77307409545	778
0	14133	828257.129120718258	779
0	14136	828370.000274888254	780
0	14154	832201.302826875302	781
0	14157	832560.28098791884	782
0	14166	834057.162093043057	783
0	14172	834389.563748154834	784
0	14178	834888.178123798679	785
0	14181	835566.068448867973	786
0	14190	836099.71935005481	787
0	14244	841874.032565686236	788
0	14247	842358.213399515001	789
0	14250	842486.004358794929	790
0	14286	845495.438452618803	791
0	14289	845626.428500075862	792
0	14298	846496.426710942268	793
0	14301	846655.696052942844	794
0	14310	846997.55802105617	795
0	14319	847497.949412056358	796
0	14322	848373.041138954535	797
0	14328	848692.311680275717	798
0	14337	849358.001552178575	799
0	14340	849522.263985430041	800
0	14358	851282.327807647809	801
0	14376	851993.477224171171	802
0	14379	852589.365956882268	803
0	14385	853114.542266796363	804
0	14394	855115.450554899453	805
0	14416	857379.849257999524	804
0	14421	857382.298863633607	805
0	14422	857765.967416834463	804
0	14425	859105.437291891327	803
0	14428	859181.637186149525	802
0	14431	859191.300146183389	801
0	14434	859305.853692992521	800
0	14437	859617.134324383565	799
0	14442	859655.954532674589	800
0	14443	859879.344389777035	799
0	14448	859894.487383278811	800
0	14449	859939.318762985503	799
0	14454	859951.905235409976	800
0	14455	860122.957308833236	799
0	14458	860129.404298445174	798
0	14461	860738.121154762593	797
0	14466	860873.701634850128	798
0	14467	861403.275300626192	797
0	14470	861446.9001310102	796
0	14473	861459.541085709581	795
0	14476	861831.902499857187	794
0	14479	862046.637873763531	793
0	14482	862171.633224265174	792
0	14485	862190.346298615404	791
0	14488	862202.871377917758	790
0	14491	862319.925994343927	789
0	14494	862367.680638553633	788
0	14499	862425.892035501487	789
0	14500	862455.751278382188	788
0	14503	862555.338293778859	787
0	14506	863466.516764542918	786
0	14509	863636.744992630989	785
0	14512	863659.855276992374	784
0	14517	863676.507912723351	785
0	14518	863793.399216717582	784
0	14523	864020.55986865943	785
0	14526	864549.611907670195	786
0	14529	865001.919168376938	787
0	14530	865140.477385081497	786
0	14533	866063.560778228168	785
0	14536	866303.828944716577	784
0	14539	866385.914717313889	783
0	14542	867101.948480563418	782
0	14545	867694.960425765097	781
0	14548	867830.615359678887	780
0	14551	867856.634884904005	779
0	14554	868116.152959672025	778
0	14557	868371.512455801211	777
0	14562	869007.929097915346	778
0	14565	869013.681330533185	779
0	14566	869089.901469833549	778
0	14569	869773.091450259283	777
0	14572	869885.110245386426	776
0	14577	870537.711040308883	777
0	14580	870840.966804188598	778
0	14583	870878.170528140117	779
0	14584	871120.370992093343	778
0	14589	871705.890522350508	779
0	14590	872236.554664040965	778
0	14593	872847.536577702812	777
0	14596	872900.042437825588	776
0	14599	873082.736007074752	775
0	14602	873690.474118643194	774
0	14607	874600.768828017739	775
0	14608	874675.041110268401	774
0	14611	874819.442846824187	773
0	14614	875601.289952988603	772
0	14617	875817.656410171716	771
0	14622	875993.509516987975	772
0	14625	876099.392766606653	773
0	14626	876721.869500880459	772
0	14629	877161.576566553471	771
0	14632	878111.720748137454	770
0	14635	878124.070382003405	769
0	14640	878336.735335737484	770
0	14643	879027.339385317383	771
0	14646	879448.018245864591	772
0	14647	879746.657685490701	771
0	14652	880644.604933471122	772
0	14653	880833.849239001069	771
0	14656	882045.514892370868	770
0	14659	882112.281834684501	769
0	14664	882436.892251593297	770
0	14665	882541.629726345248	769
0	14668	882990.607698970233	768
0	14671	883512.444018638871	767
0	14674	883694.9433785762	766
0	14679	883897.197822887659	767
0	14680	884031.965419030283	766
0	14683	884393.078537797264	765
0	14686	884772.313866521851	764
0	14689	884811.649876462311	763
0	14694	885320.957189314707	764
0	14695	885445.934229956866	763
0	14698	885514.431964367923	762
0	14701	885711.914994044104	761
0	14706	886276.04245426476	762
0	14707	886404.532199644367	761
0	14710	886932.715041110367	760
0	14713	887087.072225790088	759
0	14716	887411.572183004236	758
0	14719	887764.796392892947	757
0	14722	887888.393167444125	756
0	14725	888116.959250092466	755
0	14728	888159.201678650433	754
0	14733	888380.718541587076	755
0	14734	889018.02249979979	754
0	14739	889071.17716863904	755
0	14740	889138.411791989079	754
0	14743	889172.146946162851	753
0	14748	889233.793121949854	754
0	14749	889761.739582359346	753
0	14754	890671.342942164643	754
0	14755	890823.9294076546	753
0	14760	891225.732024108282	754
0	14761	891529.445850172791	753
0	14764	891694.323738943397	752
0	14767	891705.315432867578	751
0	14770	891770.183221654588	750
0	14775	892151.598889534535	751
0	14778	892159.869351186858	752
0	14779	893019.148214930216	751
0	14782	893466.984983001854	750
0	14785	893868.866894940299	749
0	14788	893954.263375139822	748
0	14791	893961.322921696548	747
0	14796	894346.605434790481	748
0	14797	894479.484927657444	747
0	14800	894831.582463310815	746
0	14805	894840.848667596156	747
0	14808	895501.791280772194	748
0	14809	896415.408257960285	747
0	14814	896692.279200686487	748
0	14817	896875.00603597212	749
0	14818	897015.071176982221	748
0	14821	897268.77812610418	747
0	14824	897325.351223741499	746
0	14827	898724.120674619962	745
0	14830	899052.781347359063	744
0	14833	899367.233538679918	743
0	14836	899521.664929165871	742
0	14839	899531.908091267339	741
0	14842	899543.561407365275	740
0	14845	899940.992012506214	739
0	14848	899953.233847175847	738
0	14851	900083.265457242148	737
0	14854	900437.487716260137	736
0	14857	900480.264212435083	735
0	14860	900515.838566224464	734
0	14863	900727.785026858716	733
0	14866	900746.248104711093	732
0	14871	901004.453003709039	733
0	14872	901082.293865583854	732
0	14875	901089.357961001233	731
0	14880	901202.038675574934	732
0	14881	901342.507480961073	731
0	14884	901628.022472713068	730
0	14887	901922.219682970765	729
0	14892	902054.426710308018	730
0	14893	902936.668151533913	729
0	14896	903160.316663678515	728
0	14899	903386.722738047873	727
0	14902	903433.593676390772	726
0	14907	903698.617995645063	727
0	14908	903764.943878200771	726
0	14913	903971.937735819997	727
0	14914	904321.779724277717	726
0	14917	905256.576001100168	725
0	14920	905628.220155951782	724
0	14923	905824.715793285458	723
0	14926	906005.159710246927	722
0	14929	906383.437048290526	721
0	14934	906999.041312638718	722
0	14935	907300.885204230805	721
0	14938	907447.815886206773	720
0	14941	907465.996373726603	719
0	14946	908233.842827498281	720
0	14947	908341.191223995348	719
0	14950	908394.260585621218	718
0	14953	908589.033278346979	717
0	14956	909733.391677497693	716
0	14961	909913.233681511097	717
0	14962	910189.349711478834	716
0	14965	910451.577150113937	715
0	14968	910625.648845614396	714
0	14971	911123.698857428048	713
0	14974	911130.975431459647	712
0	14977	911660.571259446684	711
0	14980	911839.550676657501	710
0	14983	911926.954938355754	709
0	14986	912008.924971262511	708
0	14989	912454.952453077399	707
0	14992	912582.090234208493	706
0	14997	912802.607166704866	707
0	14998	913365.448863927141	706
0	15001	913475.852161517987	705
0	15004	913716.437723454399	704
0	15009	913825.547819977467	705
0	15010	914299.883453953191	704
0	15013	914712.792228714243	703
0	15016	915129.322015801285	702
0	15021	915213.191787862417	703
0	15024	915585.319376165801	704
0	15027	915899.116714624783	705
0	15030	916306.542867288578	706
0	15031	916405.023861524737	705
0	15036	916480.977316601316	706
0	15039	916870.45949851434	707
0	15040	917062.711255209594	706
0	15043	917185.333303969083	705
0	15046	917241.334427995483	704
0	15051	917661.239994938121	705
0	15052	917822.490834238496	704
0	15055	918365.387346343832	703
0	15058	918426.410808090545	702
0	15063	918581.106620744423	703
0	15064	918881.678886033261	702
0	15067	918981.892992067491	701
0	15070	919038.785073475296	700
0	15073	919852.196242387903	699
0	15076	920307.120078799499	698
0	15081	920694.682969469526	699
0	15082	921596.279369906488	698
0	15085	921908.000293062366	697
0	15088	921950.44743437103	696
0	15091	922381.188389540223	695
0	15094	922691.705757598957	694
0	15097	922977.158547796997	693
0	15102	923058.988586385701	694
0	15105	923406.11793216462	695
0	15108	923745.120506410081	696
0	15111	924096.019818505125	697
0	15112	924280.953976949915	696
0	15115	924435.503657101709	695
0	15120	924439.537761299715	696
0	15123	924659.991337250192	697
0	15124	924696.479263003087	696
0	15127	925650.824895685064	695
0	15130	926314.392310950136	694
0	15133	927117.788779089405	693
0	15136	927247.802963294477	692
0	15139	927502.305101520535	691
0	15142	927610.573102749084	690
0	15147	927731.796834651558	691
0	15148	927798.680454043646	690
0	15153	927962.290869809547	691
0	15156	928546.955459001001	692
0	15159	928808.776232827814	693
0	15160	928948.727001726216	692
0	15163	929280.161452011842	691
0	15166	929348.071427397278	690
0	15169	929371.10363599267	689
0	15172	929765.61272804779	688
0	15175	929852.829529417089	687
0	15178	930115.544477380175	686
0	15181	930496.298609114537	685
0	15186	930526.185500190372	686
0	15187	930923.477631476424	685
0	15190	931135.82128543977	684
0	15193	931493.339652729157	683
0	15198	931655.933745485973	684
0	15199	932079.58011916167	683
0	15202	932238.696809805159	682
0	15207	933776.616789173377	683
0	15208	934302.523657018863	682
0	15211	934895.735663850537	681
0	15216	935109.863446112058	682
0	15219	935761.175612992779	683
0	15220	936215.19841183693	682
0	15225	936662.36601140971	683
0	15226	936953.097123655433	682
0	15229	937005.817609018874	681
0	15232	937311.610667322177	680
0	15237	937710.293879965767	681
0	15238	937784.140575859325	680
0	15241	938084.381098902102	679
0	15244	938160.243598159229	678
0	15247	938240.838659551526	677
0	15252	938403.012206685749	678
0	15253	938718.958028103145	677
0	15256	939101.944543425174	676
0	15259	939271.74947722806	675
0	15262	939602.58028468867	674
0	15265	939995.336943590366	673
0	15268	940145.721328398316	672
0	15271	941012.362888831003	671
0	15274	941218.556049991885	670
0	15277	941508.974879627758	669
0	15280	941742.315170396384	668
0	15283	941792.590090308803	667
0	15288	942160.462944796257	668
0	15289	942232.951972029145	667
0	15292	942764.884207819857	666
0	15295	942943.973115727375	665
0	15298	943098.243295639464	664
0	15303	943938.301214139379	665
0	15304	944774.499829224177	664
0	15309	944931.235896044899	665
0	15312	945412.833417585448	666
0	15313	945659.243682366805	665
0	15316	945932.147465888706	664
0	15319	946113.1723197262	663
0	15322	946148.299677491644	662
0	15325	946729.958407837994	661
0	15328	947085.209130361017	660
0	15333	947411.953214583794	661
0	15334	948849.419548094945	660
0	15337	949156.529717326967	659
0	15342	949772.55041582565	660
0	15343	950416.766471941305	659
0	15348	950434.897750034926	660
0	15351	950450.277934402409	661
0	15352	950584.215978010241	660
0	15357	950644.405193566806	661
0	15358	951079.328057567711	660
0	15361	951882.955134774707	659
0	15364	952537.718077510921	658
0	15367	952654.564305114241	657
0	15370	952797.170713597027	656
0	15373	952952.681740040247	655
0	15376	952954.531302671002	654
0	15379	953239.971682626405	653
0	15382	953366.067608170645	652
0	15385	953396.814485179609	651
0	15390	954555.187832830396	652
0	15393	954652.95634013844	653
0	15394	954670.864078925699	652
0	15397	954895.534811499704	651
0	15400	955038.803215044473	650
0	15403	955163.234979705521	649
0	15408	955322.279162569369	650
0	15409	955335.504546354159	649
0	15412	955442.496985401102	648
0	15415	955691.498890606879	647
0	15420	955864.576409631882	648
0	15421	956033.906799602704	647
0	15424	956134.534379542186	646
0	15427	957321.113597222987	645
0	15430	957810.35604444786	644
0	15433	957872.215308768828	643
0	15436	958135.298595226749	642
0	15439	959015.680715301239	641
0	15442	959086.855757872676	640
0	15445	959121.217931313061	639
0	15450	959759.122201527931	640
0	15453	960496.708098534277	641
0	15454	960953.166995552891	640
0	15459	961024.546153285705	641
0	15460	961026.743761707095	640
0	15463	961213.969147570848	639
0	15466	961454.374131538874	638
0	15471	961538.152827355643	639
0	15474	961793.564491190981	640
0	15475	962013.335745633903	639
0	15480	962368.743611200271	640
0	15481	963366.422047088543	639
0	15484	963593.505465533816	638
0	15489	964080.993651872525	639
0	15490	964114.959655288967	638
0	15495	964999.451346609755	639
0	15496	965291.196949149172	638
0	15501	965430.774669649996	639
0	15502	965605.16170187675	638
0	15507	966112.629176900087	639
0	15508	966271.078599016921	638
0	15511	966431.34673761477	637
0	15514	966506.748150015812	636
0	15517	966681.118756677399	635
0	15520	967329.256886323728	634
0	15523	967539.556036341622	633
0	15526	967794.437805803753	632
0	15529	968011.933271072339	631
0	15532	968133.992087030641	630
0	15535	968178.783587100442	629
0	15540	968553.096902532178	630
0	15541	968655.485829373719	629
0	15544	968770.62909129182	628
0	15547	968812.474986932552	627
0	15550	968880.905156552633	626
0	15555	969315.206476008348	627
0	15558	969732.346270667545	628
0	15559	969787.207374333975	627
0	15564	969798.803573524277	628
0	15565	969929.643138895025	627
0	15570	970420.573681973662	628
0	15571	970468.342387351015	627
0	15576	970769.355473321971	628
0	15579	970944.518429970503	629
0	15582	971060.966148697586	630
0	15583	971065.301168431673	629
0	15586	971665.567273613141	628
0	15589	972181.384164807016	627
0	15592	972303.236832233891	626
0	15595	972368.077453372679	625
0	15598	972473.664288675883	624
0	15603	972655.487813531613	625
0	15604	972885.385615720671	624
0	15607	973531.843329908908	623
0	15612	973928.978054609584	624
0	15613	974382.411724628121	623
0	15616	974766.516084341388	622
0	15619	974806.308638692244	621
0	15624	975474.102986295393	622
0	15625	975956.70712641726	621
0	15628	976406.710406595085	620
0	15633	976678.343906239476	621
0	15634	976924.104027208841	620
0	15637	977738.58565796101	619
0	15640	978040.780086161123	618
0	15643	978332.329789257683	617
0	15648	978685.995112597146	618
0	15649	979223.833639333282	617
0	15652	979274.113250168867	616
0	15657	979329.556013021157	617
0	15660	979837.994694038046	618
0	15661	980653.320852798272	617
0	15664	980793.743245438608	616
0	15667	981129.982587659485	615
0	15670	981196.408542403483	614
0	15673	981361.383529389671	613
0	15676	981427.895517340319	612
0	15681	981495.422344177055	613
0	15684	982104.351587387557	614
0	15685	982194.766772105651	613
0	15688	982434.863581218416	612
0	15691	982474.839822833254	611
0	15696	982737.040704085712	612
0	15699	983368.713100031554	613
0	15700	983467.768688474002	612
0	15703	984312.570220190691	611
0	15706	984320.486451884256	610
0	15709	984564.915756160417	609
0	15712	984688.189654455955	608
0	15715	984694.12987604581	607
0	15718	984697.615982847928	606
0	15721	985086.185377261316	605
0	15724	985962.480611203903	604
0	15729	986316.564094844323	605
0	15732	987107.226991807829	606
0	15733	988214.694783954925	605
0	15736	988286.909525707439	604
0	15739	988681.609983966519	603
0	15744	988876.540222795939	604
0	15745	989411.029630625445	603
0	15748	989441.62645801514	602
0	15751	990132.008673113823	601
0	15754	990921.778986234878	600
0	15757	991205.545544743828	599
0	15760	991212.241061263287	598
0	15765	991435.377552651551	599
0	15766	991579.91297248797	598
0	15771	992067.023372663535	599
0	15772	992120.021634530468	598
0	15777	992521.840866899919	599
0	15778	992890.060472940133	598
0	15781	992914.69469604548	597
0	15784	993243.078700651293	596
0	15789	993611.731707928692	597
0	15790	993855.790725486404	596
0	15795	994066.290470338225	597
0	15796	994099.640338229784	596
0	15799	994543.99756075572	595
0	15802	994774.555546190817	594
0	15805	995369.111984448122	593
0	15808	995641.604237399765	592
0	15811	995960.312789165711	591
0	15814	996367.631237824761	590
0	15817	996438.564460517735	589
0	15820	996481.484509313966	588
0	15823	996698.012084401629	587
0	15826	997574.334520524922	586
0	15829	997607.209772781707	585
0	15832	997950.278366041545	584
0	15835	998430.708462934351	583
0	15840	998514.37510882738	584
0	15841	998893.516243046519	583
0	15844	999945.380684825851	582
0	15847	1000597.218168133231	581
0	15850	1001019.798207445636	580
0	15853	1001222.810122904799	579
0	15856	1001253.403938143774	578
0	15859	1001614.167813681367	577
0	15862	1001650.039445671871	576
0	15867	1001713.10458378577	577
0	15868	1001799.106675095533	576
0	15871	1002119.195295650352	575
0	15874	1002170.180261851085	574
0	15877	1002317.200685926684	573
0	15880	1002335.215303646884	572
0	15885	1002587.404224497542	573
0	15886	1002886.222897087584	572
0	15889	1003009.61152239875	571
0	15894	1003091.206323859661	572
0	15895	1004580.386001938226	571
0	15898	1004908.308109994525	570
0	15901	1005354.061324560039	569
0	15904	1006242.309914331177	568
0	15907	1006271.596710834017	567
0	15910	1006519.447173671929	566
0	15913	1006523.900876973142	565
0	15918	1006552.326026272107	566
0	15919	1007620.723311352272	565
0	15922	1007633.205839123679	564
0	15925	1007735.589943032287	563
0	15928	1008257.97247571724	562
0	15931	1008412.0089938978	561
0	15934	1009689.839944708755	560
0	15937	1009785.897538357227	559
0	15940	1010046.496654504055	558
0	15943	1011128.455689202153	557
0	15946	1011248.811035056367	556
0	15949	1011682.658417790357	555
0	15952	1012115.905502479297	554
0	15955	1012404.410459666861	553
0	15958	1012602.193886620036	552
0	15963	1012615.852881197929	553
0	15964	1012937.428379798705	552
0	15969	1013046.107758577373	553
0	15970	1013094.65198897168	552
0	15973	1013486.076629203039	551
0	15978	1013506.452479030266	552
0	15979	1013704.098269102028	551
0	15982	1013950.47878101911	550
0	15985	1014041.794432085393	549
0	15990	1014072.79643470177	550
0	15991	1014116.747332183789	549
0	15994	1014580.296585836844	548
0	15997	1014772.706340616049	547
0	16002	1015185.494444951865	548
0	16003	1015526.406474141236	547
0	16006	1016071.128458157338	546
0	16009	1016291.760984889958	545
0	16012	1016515.350074320518	544
0	16017	1016785.954932535214	545
0	16018	1016807.089502989603	544
0	16023	1016975.089439333478	545
0	16024	1017443.58693158531	544
0	16027	1017687.715346358002	543
0	16030	1017709.948961263403	542
0	16035	1018270.267546394612	543
0	16038	1018995.894006962811	544
0	16039	1019102.384066584065	543
0	16042	1020331.956814422469	542
0	16047	1020635.65114160433	543
0	16048	1021051.690413021984	542
0	16053	1021086.494100073047	543
0	16054	1022316.496191637479	542
0	16059	1022463.772613562231	543
0	16060	1022518.878292767569	542
0	16063	1022875.499578583723	541
0	16066	1022926.254541520779	540
0	16069	1023412.400499577815	539
0	16072	1023798.507675231666	538
0	16075	1024258.498125501748	537
0	16078	1024598.873034323104	536
0	16083	1025304.520042471411	537
0	16084	1025854.99744188369	536
0	16087	1025994.806137121471	535
0	16092	1026012.81068117481	536
0	16093	1026288.877878561179	535
0	16098	1026371.341283956221	536
0	16099	1026497.997555778152	535
0	16102	1026557.932481546677	534
0	16105	1027217.987039168988	533
0	16108	1027314.931783904162	532
0	16111	1027408.371879426719	531
0	16114	1027432.219237753841	530
0	16117	1027779.135745245003	529
0	16120	1028510.088424284959	528
0	16125	1028974.975757698229	529
0	16128	1028990.92606583164	530
0	16129	1029072.94934058902	529
0	16132	1029178.870754382574	528
0	16135	1029413.073671444643	527
0	16140	1029444.245373406369	528
0	16141	1030172.633403588713	527
0	16146	1030335.965708069291	528
0	16149	1030991.210204743505	529
0	16150	1031190.769486009627	528
0	16155	1031398.023041629646	529
0	16156	1031765.568840356304	528
0	16159	1031768.016945561958	527
0	16162	1031779.052514055833	526
0	16165	1032013.437326247961	525
0	16170	1032593.176450927874	526
0	16173	1033021.920178344037	527
0	16174	1033160.747459506825	526
0	16179	1033269.624144830656	527
0	16182	1033438.918217458548	528
0	16183	1033546.86855840446	527
0	16186	1033586.415126213322	526
0	16189	1033618.966458362194	525
0	16192	1034073.2353384019	524
0	16195	1034143.946329865929	523
0	16198	1034309.917348326329	522
0	16201	1034759.49727065031	521
0	16206	1034996.174826418966	522
0	16207	1035067.104106582507	521
0	16212	1036392.101677671918	522
0	16213	1036735.580727439004	521
0	16216	1036790.501475346563	520
0	16221	1037315.699581846978	521
0	16224	1038192.497556868743	522
0	16225	1038460.411175166809	521
0	16228	1038601.97501209558	520
0	16231	1038662.195110495653	519
0	16236	1038912.943193876159	520
0	16237	1039000.198027956795	519
0	16240	1039837.835692812525	518
0	16245	1040119.76373251919	519
0	16246	1040216.569334570773	518
0	16249	1040583.4388774624	517
0	16254	1041284.660656936348	518
0	16255	1041746.454345088016	517
0	16260	1042106.359154901316	518
0	16261	1042305.371221392446	517
0	16264	1042598.79884246884	516
0	16267	1042655.637216842261	515
0	16270	1042717.017510869243	514
0	16273	1042748.259500997336	513
0	16276	1042793.283498287722	512
0	16279	1042862.074386761193	511
0	16282	1043020.349060233208	510
0	16285	1043135.850155116957	509
0	16288	1043316.512770197441	508
0	16291	1043685.92376155154	507
0	16294	1044392.364998967701	506
0	16297	1044781.929926974676	505
0	16302	1045019.547379223898	506
0	16303	1045069.781458345771	505
0	16308	1045295.151654683619	506
0	16309	1045372.149181850369	505
0	16314	1045994.523634628253	506
0	16317	1046679.396960374389	507
0	16320	1047725.603467006302	508
0	16321	1047785.080932851416	507
0	16324	1048144.709801003426	506
0	16329	1048353.856330790189	507
0	16330	1048813.539702281731	506
0	16333	1049075.789701399458	505
0	16336	1049143.578656989092	504
0	16339	1049727.333874855433	503
0	16344	1050187.904690524042	504
0	16347	1050377.469687229543	505
0	16348	1050537.849558202609	504
0	16353	1050698.981751781825	505
0	16354	1050849.887832003094	504
0	16359	1051058.002179927826	505
0	16360	1051564.151078119482	504
0	16363	1051644.571513671509	503
0	16366	1051697.653840608949	502
0	16369	1051954.669843012767	501
0	16372	1052035.949067518316	500
0	16377	1052234.925777667273	501
0	16378	1052421.981056698942	500
0	16381	1052505.944496044058	499
0	16384	1052911.072261590535	498
0	16387	1053492.115177499683	497
0	16390	1053612.534892913548	496
0	16393	1053646.356562743631	495
0	16396	1054591.679438931683	494
0	16399	1055794.469124047828	493
0	16404	1055889.002486847331	494
0	16405	1055971.241377622222	493
0	16408	1056040.326889539022	492
0	16411	1056208.696538539413	491
0	16416	1056546.4233736317	492
0	16419	1056675.72758790974	493
0	16422	1056803.903612698349	494
0	16425	1057393.822527872597	495
0	16426	1057823.209691247498	494
0	16429	1058266.363638400922	493
0	16434	1058279.67326455124	494
0	16437	1058382.996627603423	495
0	16438	1058836.253308876484	494
0	16441	1058986.544150741045	493
0	16444	1059034.453864820602	492
0	16447	1059777.540246882685	491
0	16450	1060085.939735841891	490
0	16453	1060512.95635411932	489
0	16456	1060571.384010076652	488
0	16459	1060666.383253363201	487
0	16464	1061172.204919115356	488
0	16465	1061274.09498374408	487
0	16470	1061354.834905249691	488
0	16471	1061368.018136227513	487
0	16474	1061473.684186265785	486
0	16477	1061612.726394757894	485
0	16482	1063799.594544848726	486
0	16485	1064005.547623977264	487
0	16486	1064270.115140956425	486
0	16491	1065947.595082185575	487
0	16494	1067042.06123999722	488
0	16497	1067427.119953062667	489
0	16498	1068475.665293989984	488
0	16503	1068492.157342232391	489
0	16504	1068530.424678163266	488
0	16507	1068785.017112978958	487
0	16512	1069440.995145462572	488
0	16513	1070033.947497184296	487
0	16518	1070034.126872197462	488
0	16519	1070838.366251121949	487
0	16522	1071226.128886078164	486
0	16525	1071285.356886790199	485
0	16528	1071345.737204318225	484
0	16531	1071385.012470827024	483
0	16534	1071574.101439662197	482
0	16537	1071614.210644925052	481
0	16542	1072755.918912609955	482
0	16543	1072953.457691765492	481
0	16546	1073006.716261478958	480
0	16549	1073251.956145909315	479
0	16552	1073294.877472511223	478
0	16555	1073361.966134464347	477
0	16558	1073374.892866720784	476
0	16561	1073745.197175301224	475
0	16564	1074145.570621458469	474
0	16567	1074462.605939820637	473
0	16570	1074618.216620397021	472
0	16573	1074709.110898986043	471
0	16578	1075198.527587641029	472
0	16579	1075666.834415687364	471
0	16584	1076160.323173876254	472
0	16586	1077124.162277564053	471
0	16589	1077250.510652152133	470
0	16592	1077362.424066395632	469
0	16595	1078189.891403063449	468
0	16598	1078483.414370025114	467
0	16601	1078669.854585837456	466
0	16604	1078811.573925783693	465
0	16607	1078931.792871621999	464
0	16610	1079035.03961426488	463
0	16613	1079408.449694557089	462
0	16616	1080278.928334284961	461
0	16619	1081280.974433106364	460
0	16622	1081350.565578419509	459
0	16625	1081410.223487487731	458
0	16628	1081545.575576431081	457
0	16631	1081664.219632791996	456
0	16634	1081864.781779526696	455
0	16637	1081880.29627715395	454
0	16640	1082011.69593221775	453
0	16643	1082159.59961889278	452
0	16646	1082256.851376250431	451
0	16649	1082768.759426724962	450
0	16652	1083374.849401879385	449
0	16655	1083419.403137942544	448
0	16658	1083583.396338724532	447
0	16661	1083729.500646933673	446
0	16664	1083778.558164011425	445
0	16667	1084109.462117851064	444
0	16670	1084429.416036440251	443
0	16673	1085073.057063437582	442
0	16676	1085128.167983391952	441
0	16679	1086989.462839019522	440
0	16682	1087171.297040488827	439
0	16685	1087399.577851122083	438
0	16688	1088277.31093705395	437
0	16691	1088580.501004980365	436
0	16694	1088769.850719790198	435
0	16697	1089617.723399958523	434
0	16700	1090029.157576234702	433
0	16703	1090288.992342096396	432
0	16706	1090586.077359591863	431
0	16709	1090684.972695860065	430
0	16712	1090745.875027250443	429
0	16715	1091651.090553936241	428
0	16718	1092081.476340226699	427
0	16721	1092618.638836431873	426
0	16724	1093415.23288449545	425
0	16727	1093609.683714906591	424
0	16730	1093649.898878376572	423
0	16733	1093924.734010367123	422
0	16736	1094500.596031359782	421
0	16739	1094593.253456856221	420
0	16742	1095074.889880649266	419
0	16745	1095094.0057716016	418
0	16748	1095922.112134218967	417
0	16751	1096082.613077948898	416
0	16754	1096127.789160092877	415
0	16757	1096540.98878398387	414
0	16760	1096690.939867679352	413
0	16763	1096827.510785385291	412
0	16766	1097314.596415033787	411
0	16769	1099047.999944656878	410
0	16772	1099057.150447579172	409
0	16775	1099101.0560245798	408
0	16778	1099645.443408006874	407
0	16781	1100071.144130136615	406
0	16784	1100873.324642695867	405
0	16787	1101198.054278003139	404
0	16790	1101446.241764968779	403
0	16793	1101447.559651007457	402
0	16796	1101681.724531714757	401
0	16799	1102435.90482487276	400
0	16802	1102570.046955088766	399
0	16805	1102785.144307227052	398
0	16808	1102787.225888901235	397
0	16811	1103083.979651091202	396
0	16814	1103168.71463916517	395
0	16817	1103699.86017277638	394
0	16820	1105304.918718172937	393
0	16823	1105833.089670195166	392
0	16826	1106663.128587708668	391
0	16829	1107319.01767203329	390
0	16832	1107446.400548097301	389
0	16835	1107496.305514553252	388
0	16838	1108859.709356789663	387
0	16841	1110242.076656996307	386
0	16844	1110430.483687590949	385
0	16847	1111269.604768983786	384
0	16850	1111414.782877666086	383
0	16853	1112304.175068724912	382
0	16856	1112372.330171265797	381
0	16859	1112805.143045034712	380
0	16862	1113758.180947594286	379
0	16865	1113898.581529912503	378
0	16868	1115683.237312777882	377
0	16871	1116183.662200695371	376
0	16874	1116346.673610089039	375
0	16877	1116956.543203470886	374
0	16880	1117456.102780754166	373
0	16883	1117563.121536343209	372
0	16886	1117730.984043536428	371
0	16889	1118525.46054922365	370
0	16892	1118571.049166982764	369
0	16895	1118848.292517343832	368
0	16898	1119053.266317591139	367
0	16901	1119162.197520233551	366
0	16904	1119491.82058716157	365
0	16907	1120886.611539576433	364
0	16910	1120940.562437062993	363
0	16913	1121992.174940700994	362
0	16916	1122693.032066559558	361
0	16919	1123211.16955045351	360
0	16922	1123493.891218027536	359
0	16925	1123813.416174882892	358
0	16928	1123923.183250833133	357
0	16931	1124111.189464877648	356
0	16934	1124480.411949806541	355
0	16937	1125359.694444070252	354
0	16940	1126007.549607352518	353
0	16943	1126617.849850160412	352
0	16946	1126780.991403327284	351
0	16949	1127380.117021914857	350
0	16952	1127876.977404084739	349
0	16955	1128167.521144595658	348
0	16958	1128397.011270596707	347
0	16961	1128414.196433300742	346
0	16964	1129781.042168157215	345
0	16967	1130116.788117664457	344
0	16970	1130722.508278550534	343
0	16973	1131496.623669112964	342
0	16976	1131677.710919939443	341
0	16979	1131968.601816556547	340
0	16982	1131975.961734442243	339
0	16985	1132532.634199508182	338
0	16988	1132973.037840174189	337
0	16991	1133236.117726247282	336
0	16994	1133326.737998448032	335
0	16997	1133663.894478297535	334
0	17000	1133717.3125960767	333
0	17003	1133736.727365116632	332
0	17006	1134840.248166052035	331
0	17009	1134992.98180765319	330
0	17012	1139054.888079619069	329
0	17015	1139993.861069554194	328
0	17018	1140123.144597672366	327
0	17021	1140274.90874148237	326
0	17024	1140422.54185092967	325
0	17027	1140670.923058643881	324
0	17030	1140745.030593976386	323
0	17033	1141091.593738609562	322
0	17036	1141343.087862673067	321
0	17039	1141939.096526661386	320
0	17042	1142764.692850655608	319
0	17045	1142881.907630873627	318
0	17048	1143378.808809597541	317
0	17051	1143409.82051910817	316
0	17054	1144179.606232857178	315
0	17057	1144986.915040134801	314
0	17060	1145093.526315523098	313
0	17063	1145608.26890270281	312
0	17066	1146147.099714938426	311
0	17069	1146753.611856711903	310
0	17072	1147784.185741977829	309
0	17075	1147861.173195756351	308
0	17078	1147996.99753019516	307
0	17081	1148259.832134437626	306
0	17084	1148742.055731548082	305
0	17087	1148992.243159283047	304
0	17090	1149202.643065967053	303
0	17093	1149490.308483325735	302
0	17096	1149631.203218260564	301
0	17099	1150660.599244164617	300
0	17102	1152096.668081470431	299
0	17105	1154065.369704251475	298
0	17108	1154241.558172363226	297
0	17111	1154254.774828196815	296
0	17114	1154301.67841243041	295
0	17117	1154385.419608918794	294
0	17120	1154587.625941556071	293
0	17123	1155342.250711666835	292
0	17126	1155586.230423007539	291
0	17129	1155623.896869622782	290
0	17132	1156197.314612290265	289
0	17135	1157721.951819880685	288
0	17138	1158952.493664896023	287
0	17141	1159453.416111794003	286
0	17144	1160151.532734927634	285
0	17147	1160156.24174410461	284
0	17150	1161254.761968797542	283
0	17153	1161746.865474159854	282
0	17156	1162011.743286529703	281
0	17159	1162163.429255726734	280
0	17162	1162685.616189898796	279
0	17165	1162971.694278845674	278
0	17168	1163123.63572821016	277
0	17171	1163185.48418137685	276
0	17174	1163215.128304683019	275
0	17177	1163595.348353996332	274
0	17180	1163782.302502203617	273
0	17183	1163880.959840197251	272
0	17186	1164372.946403504256	271
0	17189	1164509.577552527224	270
0	17192	1164641.534251045973	269
0	17195	1165131.001650046066	268
0	17198	1165943.222210443206	267
0	17201	1166034.323329957354	266
0	17204	1166677.264920091598	265
0	17207	1166817.328562929737	264
0	17210	1166905.991263598938	263
0	17213	1166943.348774355795	262
0	17216	1167108.45867258007	261
0	17219	1167485.456838955016	260
0	17222	1168202.528566417388	259
0	17225	1168315.263724551902	258
0	17228	1168430.192317921474	257
0	17231	1169306.959929934035	256
0	17234	1169472.540194527535	255
0	17237	1169840.359970996414	254
0	17240	1170013.051132147716	253
0	17243	1170116.095197525367	252
0	17246	1170779.72115023995	251
0	17249	1170782.727156466564	250
0	17252	1170798.235542297767	249
0	17255	1170849.256188639052	248
0	17258	1170880.759761706972	247
0	17261	1170988.463981975062	246
0	17264	1171343.494227184988	245
0	17267	1171673.98165748869	244
0	17270	1171881.957448686666	243
0	17273	1171970.113559958128	242
0	17276	1172381.968852719588	241
0	17279	1172853.762796450235	240
0	17282	1172981.121376219296	239
0	17285	1173019.331204642601	238
0	17288	1174007.095496845758	237
0	17291	1174216.861192089238	236
0	17294	1174805.022167216719	235
0	17297	1174915.97458475839	234
0	17300	1174944.80631732726	233
0	17303	1175612.207269458518	232
0	17306	1176241.875456439482	231
0	17309	1176298.146220204741	230
0	17312	1177733.659513373915	229
0	17315	1177786.479580221291	228
0	17318	1178959.823480873583	227
0	17321	1179584.980696736811	226
0	17324	1180131.550192010565	225
0	17327	1180309.733130331867	224
0	17330	1180363.954527725608	223
0	17333	1181000.015888831889	222
0	17336	1181352.737276111404	221
0	17339	1181801.841512877171	220
0	17342	1181939.280000688842	219
0	17345	1181977.23425291933	218
0	17348	1183421.357202226515	217
0	17351	1184877.183415511695	216
0	17354	1185396.698179375846	215
0	17357	1186492.406367378866	214
0	17360	1186880.215079226546	213
0	17363	1187545.508159742681	212
0	17366	1188033.666090513401	211
0	17369	1188782.70026704068	210
0	17372	1189019.525160918672	209
0	17375	1189417.76498213185	208
0	17378	1189609.450845559403	207
0	17381	1190647.814679425203	206
0	17384	1191776.316109032546	205
0	17387	1191997.224713137572	204
0	17390	1192163.004862523704	203
0	17393	1193083.192120346109	202
0	17396	1193100.585265576787	201
0	17399	1193352.526411913216	200
0	17402	1193563.051652497931	199
0	17405	1194188.698987905894	198
0	17408	1194830.79187051436	197
0	17411	1195096.092349744902	196
0	17414	1195525.774576907621	195
0	17417	1196016.811570754426	194
0	17420	1197362.702288413401	193
0	17423	1197595.640052676428	192
0	17426	1197641.78521464739	191
0	17429	1197839.052479010359	190
0	17432	1198835.840936903301	189
0	17435	1199269.707602195937	188
0	17438	1199458.854094407214	187
0	17441	1200084.493548369657	186
0	17444	1200348.544192933499	185
0	17447	1200383.464553340269	184
0	17450	1200613.402436570438	183
0	17453	1200739.434568281487	182
0	17456	1200790.320467196898	181
0	17459	1201155.411085638306	180
0	17462	1201272.442646695188	179
0	17465	1201415.462673360577	178
0	17468	1201972.71654362954	177
0	17471	1202330.256082331506	176
0	17474	1202339.822657670167	175
0	17477	1204402.959516572847	174
0	17480	1204462.036980199729	173
0	17483	1205351.323333043096	172
0	17486	1205361.817555561402	171
0	17489	1205716.087996462962	170
0	17492	1206516.563134082643	169
0	17495	1206545.639324750572	168
0	17498	1206940.433087908273	167
0	17501	1207651.802088683044	166
0	17504	1207728.348221641908	165
0	17507	1208973.238529875148	164
0	17510	1209575.087213364754	163
0	17513	1209631.278398677122	162
0	17516	1211030.825187294011	161
0	17519	1211427.411430088406	160
0	17522	1212548.055257781962	159
0	17525	1212614.004322230558	158
0	17528	1213660.107228877999	157
0	17531	1213708.612750507326	156
0	17534	1213711.835349722267	155
0	17537	1213899.746613786594	154
0	17540	1214265.205714036125	153
0	17543	1214385.066747127841	152
0	17546	1214506.95491948	151
0	17549	1215054.30470160172	150
0	17552	1215396.091719607347	149
0	17555	1215501.488431473352	148
0	17558	1215658.806911945292	147
0	17561	1216428.542128801276	146
0	17564	1216497.114126702216	145
0	17567	1216610.207861020808	144
0	17570	1216851.824637402022	143
0	17573	1217294.512276475337	142
0	17576	1217575.384585850274	141
0	17579	1217654.328640159312	140
0	17582	1219537.527043715269	139
0	17585	1219895.890642203415	138
0	17588	1219913.692068588037	137
0	17591	1220201.712832441594	136
0	17594	1220348.985061699435	135
0	17597	1220697.178452928435	134
0	17600	1221482.116933958235	133
0	17603	1221681.876598283288	132
0	17606	1222124.899440373479	131
0	17609	1223219.654286466872	130
0	17612	1223939.986524199084	129
0	17615	1224092.796277011755	128
0	17618	1224536.538862767629	127
0	17621	1225517.736369158293	126
0	17624	1226103.487880114407	125
0	17627	1226668.514029530044	124
0	17630	1226947.620000681318	123
0	17633	1227135.16758054123	122
0	17636	1227229.39316611991	121
0	17639	1227481.579425840417	120
0	17642	1228164.148302557623	119
0	17645	1229011.618878331083	118
0	17648	1229356.412790408166	117
0	17651	1229438.212041109741	116
0	17654	1229499.96384612507	115
0	17657	1229568.828028896292	114
0	17660	1230240.489336737665	113
0	17663	1230584.863068386725	112
0	17666	1231893.542124161921	111
0	17669	1233537.375146060633	110
0	17672	1233712.008440914188	109
0	17675	1233996.788433803442	108
0	17678	1234139.590144359639	107
0	17681	1234532.114219951996	106
0	17684	1234567.177868985206	105
0	17687	1234971.192500136875	104
0	17690	1235420.048549901441	103
0	17693	1235901.370380817067	102
0	17696	1237213.795110893118	101
0	17699	1237674.218881427606	100
0	17702	1237734.296415240351	99
0	17705	1238589.874900082423	98
0	17708	1238862.737141039989	97
0	17711	1239095.934119505548	96
0	17714	1239138.43351479252	95
0	17717	1240345.757382286	94
0	17720	1240360.021228237563	93
0	17723	1240979.034747219597	92
0	17726	1241427.902828828276	91
0	17729	1241559.634171296327	90
0	17732	1242390.917145165985	89
0	17735	1242531.29989505512	88
0	17738	1242700.566627683592	87
0	17741	1242909.542795372921	86
0	17744	1243766.716893600695	85
0	17747	1245219.68677861313	84
0	17750	1245270.85225749031	83
0	17753	1245280.588273791202	82
0	17756	1245392.28045480434	81
0	17759	1245426.68181464624	80
0	17762	1246379.701577582042	79
0	17765	1246614.307238170814	78
0	17768	1246906.246075154458	77
0	17771	1247279.447711038171	76
0	17774	1247664.548268163899	75
0	17777	1248821.824332718378	74
0	17780	1248837.754602468837	73
0	17783	1249487.945893425962	72
0	17786	1249544.422677503396	71
0	17789	1249560.419421506199	70
0	17792	1249584.013923056016	69
0	17795	1249626.012425346811	68
0	17798	1250593.459657992157	67
0	17801	1250662.370227066817	66
0	17804	1250721.878409189357	65
0	17807	1251376.430344955348	64
0	17810	1252155.251190972473	63
0	17813	1252320.317010833768	62
0	17816	1252498.023555677074	61
0	17819	1253157.317103174809	60
0	17822	1253820.025778382966	59
0	17825	1253821.963378063989	58
0	17828	1254008.639110592971	57
0	17831	1254346.72100639312	56
0	17834	1254474.765267432725	55
0	17837	1254882.781033624704	54
0	17840	1254923.199407045613	53
0	17843	1255221.859576162242	52
0	17846	1255357.278288620818	51
0	17849	1256065.468607075459	50
0	17852	1256327.552663375798	49
0	17855	1256521.301237278074	48
0	17858	1257220.434146421102	47
0	17861	1257605.26669638949	46
0	17864	1257852.861370300266	45
0	17867	1257903.108215762979	44
0	17870	1259364.457025093352	43
0	17873	1259962.287966598669	42
0	17876	1260282.902956016238	41
0	17879	1260338.599499698698	40
0	17882	1260348.982199388918	39
0	17885	1260930.118736038703	38
0	17888	1261150.731817800695	37
0	17891	1261307.530089556875	36
0	17894	1261787.429316282915	35
0	17897	1261793.493292668493	34
0	17900	1261903.21135476619	33
0	17903	1262148.19904409301	32
0	17906	1262641.159170351612	31
0	17909	1263157.927486869864	30
0	17912	1263445.861452575713	29
0	17915	1264397.126443499927	28
0	17918	1264407.843181248202	27
0	17921	1264998.760274494899	26
0	17924	1265610.650173732472	25
0	17927	1265938.227178639106	24
0	17930	1266275.999407324176	23
0	17933	1266457.418328055422	22
0	17936	1266492.803626741361	21
0	17939	1266828.646727779112	20
0	17942	1267093.645052152263	19
0	17945	1267982.644924292181	18
0	17948	1268121.84434095206	17
0	17951	1268936.961156177131	16
0	17954	1269807.30021330204	15
0	17957	1269811.301241297565	14
0	17960	1269949.13860703083	13
0	17963	1270409.212723151517	12
0	17966	1271577.246561176461	11
0	17969	1271645.558920637746	10
0	17972	1271970.228584442531	9
0	17975	1272639.514055806265	8
0	17978	1272800.211325433025	7
0	17981	1273566.485101958309	6
0	17984	1274256.786495133426	5
0	17987	1275075.287564026945	4
0	17990	1275566.57424588006	3
0	17993	1275707.681439481016	2
0	17996	1275927.308119024366	1
0	17999	1276358.210871788882	0
1	0	0	0
1	7	72.843983966749	1
1	19	186.033613448048	2
1	28	242.699986178863	3
1	37	276.080099598076	4
1	40	279.466410405475	5
1	64	471.731322641315	6
1	73	520.418428109529	7
1	88	625.303845437475	8
1	91	626.488529564621	9
1	94	653.124921525423	10
1	100	756.799206004865	11
1	115	844.134693005833	12
1	118	881.353825021163	13
1	124	974.457719330731	14
1	127	1010.35562798908	15
1	133	1052.983564418089	16
1	145	1118.868023037282	17
1	157	1169.462652349725	18
1	163	1251.90180379516	19
1	166	1258.394681111853	20
1	172	1289.45749288507	21
1	181	1307.279753309917	22
1	193	1384.726584018105	23
1	196	1393.152709601053	24
1	199	1394.252886614717	25
1	205	1416.975593633967	26
1	208	1426.379510021833	27
1	217	1481.30531729798	28
1	223	1509.641626157843	29
1	238	1644.718601862266	30
1	244	1678.041481453257	31
1	256	1747.415733821766	32
1	259	1811.152656939721	33
1	265	1872.565036566001	34
1	268	1883.435748395038	35
1	274	1897.135737347835	36
1	277	1905.141401276685	37
1	295	1985.705877284563	38
1	301	1987.978500356522	39
1	307	2046.319018656182	40
1	325	2231.509923895292	41
1	376	2542.395744209398	42
1	379	2555.090818806821	43
1	406	2728.347832534238	44
1	409	2734.207849502158	45
1	418	2941.475975098132	46
1	427	2978.151497689088	47
1	430	2981.476459421666	48
1	433	3035.328212241947	49
1	436	3070.125131667128	50
1	454	3148.091357451963	51
1	457	3155.518649840013	52
1	460	3181.35297863136	53
1	463	3201.721191815476	54
1	466	3239.748676308567	55
1	469	3247.079217221236	56
1	481	3314.757881761057	57
1	502	3459.984765179998	58
1	505	3477.872825905672	59
1	514	3519.125206264267	60
1	517	3524.846924152526	61
1	535	3672.184585614132	62
1	538	3672.729829152649	63
1	547	3736.578891937918	64
1	556	3797.002169880327	65
1	559	3816.818111567841	66
1	562	3834.65413954606	67
1	568	3846.39046498296	68
1	583	3897.611949416598	69
1	586	3924.392341387178	70
1	589	3924.665320735734	71
1	592	3933.849128097106	72
1	604	3999.541908331511	73
1	613	4076.609865009028	74
1	616	4109.548305910883	75
1	619	4126.137522316351	76
1	631	4207.976938055425	77
1	646	4339.273485455354	78
1	664	4516.305821554644	79
1	670	4586.035658454942	80
1	679	4606.510826184843	81
1	682	4637.292730988603	82
1	688	4666.583818358374	83
1	703	4790.09478333032	84
1	721	4985.228269607286	85
1	727	5029.416600342449	86
1	730	5044.615920359624	87
1	733	5104.518146977057	88
1	742	5133.652173276191	89
1	757	5187.731540339773	90
1	769	5260.756064341077	91
1	775	5288.806934163263	92
1	787	5369.019728142396	93
1	790	5375.315459855098	94
1	802	5395.860459525333	95
1	811	5447.696746067052	96
1	814	5449.68054433182	97
1	820	5511.10308868393	98
1	829	5572.342365986195	99
1	832	5586.847092694902	100
1	850	5718.427864271066	101
1	865	5847.472914390136	102
1	868	5881.929177292918	103
1	874	5888.054710623389	104
1	895	6034.173074168218	105
1	922	6170.483356973759	106
1	931	6279.75123239575	107
1	934	6310.491399327678	108
1	952	6359.320495108134	109
1	955	6428.655931952501	110
1	958	6455.757740804276	111
1	964	6490.807086971438	112
1	976	6565.066470792556	113
1	1006	6780.244185122975	114
1	1009	6791.165293685684	115
1	1015	6815.212821159911	116
1	1027	6854.215531136261	117
1	1039	6865.689642568888	118
1	1042	6901.800288519637	119
1	1048	6916.503619417953	120
1	1051	6941.075731296644	121
1	1063	7108.379300024237	122
1	1072	7161.041213609061	123
1	1075	7171.478739419068	124
1	1081	7211.684326052246	125
1	1084	7214.681934588383	126
1	1090	7264.615505515862	127
1	1096	7280.372253595716	128
1	1099	7438.210452438667	129
1	1105	7456.246585126916	130
1	1114	7522.169181851835	131
1	1120	7573.869139312616	132
1	1126	7649.836690851593	133
1	1129	7671.522107613973	134
1	1132	7718.384950711133	135
1	1144	7747.84112782696	136
1	1150	7759.790986638976	137
1	1171	7927.357370969108	138
1	1177	7993.543369334952	139
1	1180	7998.714318154676	140
1	1189	8002.18161400377	141
1	1198	8040.990209977785	142
1	1204	8110.117979989768	143
1	1210	8137.634124829079	144
1	1213	8149.116253478449	145
1	1216	8194.470845289234	146
1	1219	8195.920169781377	147
1	1231	8307.765057720411	148
1	1240	8345.536440171632	149
1	1246	8390.145388635225	150
1	1258	8521.796109550704	151
1	1261	8535.976588829193	152
1	1264	8571.288897825949	153
1	1270	8634.387354975581	154
1	1273	8652.11243928081	155
1	1276	8660.673009188502	156
1	1279	8661.883307867891	157
1	1282	8676.98368973763	158
1	1288	8759.36593016157	159
1	1297	8781.735816416193	160
1	1300	8841.931120794565	161
1	1309	8893.40623264662	162
1	1315	8935.941557690362	163
1	1318	8935.94476810028	164
1	1336	9055.47240007137	165
1	1339	9067.38257065804	166
1	1345	9133.447914397065	167
1	1348	9168.77250193418	168
1	1360	9236.233072372856	169
1	1378	9407.012928463407	170
1	1384	9420.928492590711	171
1	1387	9463.281697174577	172
1	1396	9500.296636298964	173
1	1399	9513.783087365282	174
1	1402	9523.461816556781	175
1	1408	9555.526442054586	176
1	1414	9582.709677661248	177
1	1423	9618.833777627611	178
1	1429	9630.802541256698	179
1	1438	9726.390959300034	180
1	1441	9733.642849515596	181
1	1450	9798.803558489378	182
1	1456	9807.0187965075	183
1	1468	9880.203931569761	184
1	1474	9928.539869527224	185
1	1477	9940.282477821713	186
1	1483	9953.578648683717	187
1	1489	9964.034558059258	188
1	1492	9971.76831420907	189
1	1501	9997.256726857653	190
1	1504	9999.050451768162	191
1	1513	10083.124628800963	192
1	1516	10088.760354146251	193
1	1534	10224.50888786438	194
1	1543	10275.44536243004	195
1	1546	10289.055401686914	196
1	1549	10309.09553754202	197
1	1552	10328.708511002997	198
1	1555	10344.689131351219	199
1	1573	10410.282403144163	200
1	1576	10410.820818558087	201
1	1579	10475.108584302499	202
1	1588	10578.927981362405	203
1	1591	10598.120754470621	204
1	1594	10668.630801925415	205
1	1609	10719.837873532928	206
1	1615	10770.214685957944	207
1	1618	10860.057363348935	208
1	1633	10981.367644561085	209
1	1636	11016.589843301014	210
1	1642	11031.877315845454	211
1	1654	11204.844955022865	212
1	1666	11297.9615632808	213
1	1681	11418.239728140603	214
1	1684	11430.773308703065	215
1	1690	11486.570000445289	216
1	1693	11487.342864645336	217
1	1714	11699.6029898297	218
1	1717	11737.349235686529	219
1	1723	11818.588426110236	220
1	1726	11818.82369274686	221
1	1738	11877.994543848237	222
1	1744	11886.533596012396	223
1	1768	11986.678332037446	224
1	1771	11992.650497133162	225
1	1774	12022.873068756077	226
1	1783	12137.822708540393	227
1	1786	12162.240319827234	228
1	1795	12350.158171907483	229
1	1798	12380.895943505258	230
1	1819	12467.166869256958	231
1	1828	12553.739534780116	232
1	1831	12561.982814440891	233
1	1840	12584.805954286007	234
1	1843	12659.808530096161	235
1	1846	12660.62323238822	236
1	1849	12661.289840900314	237
1	1855	12705.510414584777	238
1	1861	12726.578463281082	239
1	1882	12850.952820222855	240
1	1885	12867.281213526171	241
1	1894	12900.103096940992	242
1	1900	12947.374160132977	243
1	1915	13061.637498937338	244
1	1924	13078.799807585726	245
1	1927	13082.103866468805	246
1	1936	13119.639999303304	247
1	1942	13137.270349738578	248
1	1948	13172.596088147348	249
1	1957	13239.281088636836	250
1	1978	13350.34193958011	251
1	1999	13440.459178697978	252
1	2017	13549.448047882161	253
1	2020	13553.648356268807	254
1	2032	13605.02247373854	255
1	2035	13631.89909533586	256
1	2038	13640.207770576005	257
1	2044	13652.936923907846	258
1	2047	13688.660242367327	259
1	2068	13839.022261676764	260
1	2074	13881.45189134646	261
1	2080	13902.70606627275	262
1	2089	13952.682780796874	263
1	2092	13963.777951458985	264
1	2095	14023.938166916947	265
1	2104	14061.342859404572	266
1	2110	14093.986721109967	267
1	2119	14135.363009512416	268
1	2122	14144.369573471701	269
1	2134	14210.709705460592	270
1	2140	14218.710992912496	271
1	2149	14247.635148218957	272
1	2152	14257.738673780776	273
1	2155	14269.755414351346	274
1	2158	14277.793449993885	275
1	2176	14413.70136593926	276
1	2188	14537.671823983466	277
1	2194	14612.373618537869	278
1	2203	14641.907362776115	279
1	2209	14674.135579739292	280
1	2218	14711.312045364597	281
1	2221	14734.342740465784	282
1	2233	14807.401928361961	283
1	2245	14883.644210050843	284
1	2248	14884.213447361936	285
1	2257	14976.523702483941	286
1	2260	14991.899102365537	287
1	2266	15027.438338167639	288
1	2272	15079.290419523082	289
1	2287	15192.389080410193	290
1	2290	15248.765712091787	291
1	2296	15298.496948043388	292
1	2305	15398.20296812712	293
1	2338	15681.445909567142	294
1	2341	15713.444719097387	295
1	2350	15747.843451742247	296
1	2365	15857.505742699268	297
1	2368	15864.905009979503	298
1	2371	15890.371475143594	299
1	2377	15924.404065931034	300
1	2383	15953.242204538906	301
1	2398	15997.262161445326	302
1	2419	16150.915080654675	303
1	2422	16156.514474838279	304
1	2431	16191.62963417341	305
1	2437	16196.879067442011	306
1	2443	16212.581082104771	307
1	2464	16318.694527144575	308
1	2467	16322.783640149484	309
1	2482	16368.404067479201	310
1	2485	16385.336939639471	311
1	2506	16470.853428676923	312
1	2509	16526.741805061696	313
1	2512	16543.015208779976	314
1	2527	16755.269811650756	315
1	2536	16776.797191457217	316
1	2542	16835.853811028024	317
1	2545	16874.94253079271	318
1	2551	16934.202194942464	319
1	2554	16960.825814736735	320
1	2557	16964.742795835606	321
1	2563	16986.496388536495	322
1	2578	17080.378730388833	323
1	2590	17143.378522435957	324
1	2596	17206.957690974501	325
1	2599	17249.2035902104	326
1	2620	17360.780427309156	327
1	2626	17431.896095618703	328
1	2632	17462.978225748395	329
1	2638	17488.912340099044	330
1	2641	17591.229408845982	331
1	2650	17617.401259158443	332
1	2653	17620.133016879661	333
1	2662	17697.970161868252	334
1	2668	17722.823602910682	335
1	2680	17820.682263658619	336
1	2701	18022.107894600969	337
1	2704	18038.143312160483	338
1	2707	18054.784039692732	339
1	2710	18069.812550533908	340
1	2713	18076.305333920252	341
1	2716	18115.303542238448	342
1	2734	18290.171702025239	343
1	2740	18293.65914743478	344
1	2743	18369.753006137696	345
1	2746	18376.761227120928	346
1	2773	18500.573966004305	347
1	2782	18566.682099590848	348
1	2785	18577.618853597413	349
1	2791	18618.279493138322	350
1	2800	18638.656127467771	351
1	2812	18744.65265100114	352
1	2818	18785.133028833354	353
1	2836	18950.863699006685	354
1	2857	19114.244579344637	355
1	2860	19122.445379883138	356
1	2893	19423.182886419044	357
1	2911	19492.259810716049	358
1	2929	19679.328143571611	359
1	2959	19905.000928815253	360
1	2986	20120.726610847416	361
1	2992	20161.613671487206	362
1	2995	20183.167385267222	363
1	3004	20202.041554862631	364
1	3007	20245.215494023699	365
1	3010	20246.774569955288	366
1	3025	20327.317851839584	367
1	3040	20525.383496180618	368
1	3046	20542.35143104971	369
1	3052	20576.619873833175	370
1	3055	20583.029794676091	371
1	3061	20624.695013118343	372
1	3070	20666.143795986264	373
1	3082	20732.324309372957	374
1	3085	20804.226798048711	375
1	3109	20933.777909412436	376
1	3112	20952.244704343676	377
1	3115	20997.74899276492	378
1	3121	21007.057070991694	379
1	3142	21119.579867164647	380
1	3151	21146.625094698025	381
1	3157	21193.987470651207	382
1	3160	21219.976572816981	383
1	3163	21225.414385298355	384
1	3178	21265.932083650941	385
1	3187	21290.261884412151	386
1	3190	21290.757669493563	387
1	3193	21309.735871610495	388
1	3220	21510.960714259535	389
1	3229	21575.608152433482	390
1	3232	21604.16975226335	391
1	3235	21604.326750988913	392
1	3238	21619.266673236703	393
1	3244	21679.69365219632	394
1	3259	21732.895416417216	395
1	3271	21875.728784042757	396
1	3274	21909.427286059406	397
1	3286	22006.883665264128	398
1	3295	22030.455611535481	399
1	3310	22176.609155778582	400
1	3313	22219.173613865888	401
1	3316	22247.190689273159	402
1	3322	22315.864297981287	403
1	3325	22321.39079798789	404
1	3334	22357.23783586201	405
1	3337	22387.870187323872	406
1	3343	22432.797784032529	407
1	3352	22559.395189611087	408
1	3367	22615.336175793166	409
1	3370	22660.963796489834	410
1	3376	22780.098840553924	411
1	3385	22820.617847436811	412
1	3388	22865.925637256086	413
1	3397	22911.138668928264	414
1	3403	22977.352369292478	415
1	3406	22996.981954995884	416
1	3439	23197.140542498726	417
1	3442	23245.125446067728	418
1	3445	23265.814988722785	419
1	3466	23403.172679796931	420
1	3490	23541.480369704318	421
1	3493	23546.095438699718	422
1	3499	23572.098538483202	423
1	3526	23712.403519344397	424
1	3544	23850.621479189505	425
1	3562	23915.379556455843	426
1	3595	24274.742343341718	427
1	3607	24337.976587356462	428
1	3613	24350.94533273988	429
1	3640	24501.726380969906	430
1	3646	24543.63731074695	431
1	3652	24570.244886300443	432
1	3655	24605.611092326211	433
1	3664	24657.61887084817	434
1	3697	24861.961648639474	435
1	3700	24891.857606539901	436
1	3709	24921.220916630661	437
1	3715	25163.396645675861	438
1	3724	25197.875674644369	439
1	3733	25256.743294229819	440
1	3736	25274.734669379148	441
1	3751	25491.605281105448	442
1	3754	25498.591860636055	443
1	3772	25568.08464113103	444
1	3775	25571.836290229448	445
1	3778	25573.108078309453	446
1	3781	25589.170727378475	447
1	3784	25597.73337660589	448
1	3793	25630.568890604235	449
1	3805	25749.386713686871	450
1	3814	25782.324199887797	451
1	3820	25788.888253166539	452
1	3826	25840.55777367623	453
1	3832	25919.904906916005	454
1	3841	26029.227054539868	455
1	3844	26081.825114763617	456
1	3871	26319.621303738465	457
1	3874	26331.77604391056	458
1	3883	26393.797245295907	459
1	3886	26394.31758576128	460
1	3889	26400.252057576488	461
1	3892	26405.736928293542	462
1	3898	26445.682157242996	463
1	3916	26496.146792044283	464
1	3919	26610.007942838588	465
1	3946	26741.608149862756	466
1	3967	26968.396314502672	467
1	3979	27006.738942950796	468
1	3985	27022.295882360543	469
1	3988	27025.814991770685	470
1	4000	27090.361092844164	471
1	4009	27162.916115162369	472
1	4015	27190.773040363257	473
1	4021	27192.061722180345	474
1	4027	27219.2989880438	475
1	4039	27282.144782964818	476
1	4054	27424.436521772003	477
1	4066	27469.088514049202	478
1	4069	27499.205230092278	479
1	4084	27585.928634943761	480
1	4087	27587.692298582094	481
1	4093	27635.517458526457	482
1	4102	27665.112489247249	483
1	4114	27719.179320200056	484
1	4126	27777.601136126664	485
1	4129	27783.924984216716	486
1	4135	27850.397510250434	487
1	4150	27979.116650513293	488
1	4153	28009.156210327393	489
1	4168	28193.447186372415	490
1	4171	28205.70961452114	491
1	4174	28231.163156789579	492
1	4177	28232.283026890753	493
1	4189	28341.677703087515	494
1	4198	28415.619087335406	495
1	4201	28430.243188568496	496
1	4210	28451.544742283355	497
1	4213	28456.716665054911	498
1	4216	28475.334529212699	499
1	4231	28489.849219476075	500
1	4240	28498.886732270459	501
1	4243	28502.822373197238	502
1	4246	28517.431110709488	503
1	4267	28629.943092765756	504
1	4282	28755.362579443809	505
1	4285	28768.275632861846	506
1	4300	28840.660690276268	507
1	4309	28865.596178035114	508
1	4312	28897.375099421822	509
1	4321	28978.017680400972	510
[...]
3	16668	1084109.462117851064	476889.46890116
3	16671	1084429.416036440251	476085.34472951
3	16674	1085073.057063437582	475097.97912352
3	16677	1085128.167983391952	474472.13674097
3	16680	1086989.462839019522	475445.14510424
3	16683	1087171.297040488827	474954.05204719
3	16686	1087399.577851122083	474411.40378804
3	16689	1088277.31093705395	474988.93701579
3	16692	1088580.501004980365	474325.06053882
3	16695	1088769.850719790198	474255.84209255
3	16698	1089617.723399958523	473178.42616875
3	16701	1090029.157576234702	473548.22036861
3	16704	1090288.992342096396	473113.32231748
3	16707	1090586.077359591863	472765.37840215
3	16710	1090684.972695860065	471691.2003023
3	16713	1090745.875027250443	470260.68839682
3	16716	1091651.090553936241	471128.57888389
3	16719	1092081.476340226699	471388.90625528
3	16722	1092618.638836431873	471718.64232011
3	16725	1093415.23288449545	472330.94011095
3	16728	1093609.683714906591	472095.17977867
3	16731	1093649.898878376572	472008.59361271
3	16734	1093924.734010367123	471386.54810348
3	16737	1094500.596031359782	470722.95098146
3	16740	1094593.253456856221	469262.1560158
3	16743	1095074.889880649266	465467.61525775
3	16746	1095094.0057716016	464685.13425995
3	16749	1095922.112134218967	465481.68957884
3	16752	1096082.613077948898	465117.01987735
3	16755	1096127.789160092877	464416.93627041
3	16758	1096540.98878398387	464011.17025736
3	16761	1096690.939867679352	463612.10714226
3	16764	1096827.510785385291	462414.18408226
3	16767	1097314.596415033787	461868.73834495
3	16770	1099047.999944656878	463325.62953812
3	16773	1099057.150447579172	462579.62945449
3	16776	1099101.0560245798	462533.14759719
3	16779	1099645.443408006874	459246.76228259
3	16782	1100071.144130136615	458196.23028671
3	16785	1100873.324642695867	458998.33407791
3	16788	1101198.054278003139	457791.01794213
3	16791	1101446.241764968779	457382.32157199
3	16794	1101447.559651007457	457256.51923545
3	16797	1101681.724531714757	457037.40792919
3	16800	1102435.90482487276	457270.81287012
3	16803	1102570.046955088766	457224.07686103
3	16806	1102785.144307227052	457218.12537182
3	16809	1102787.225888901235	456390.46690291
3	16812	1103083.979651091202	455156.1039893
3	16815	1103168.71463916517	453540.00296521
3	16818	1103699.86017277638	453310.48097552
3	16821	1105304.918718172937	453776.50780995
3	16824	1105833.089670195166	454151.9816908
3	16827	1106663.128587708668	454039.58898072
3	16830	1107319.01767203329	452912.16530954
3	16833	1107446.400548097301	452304.98935644
3	16836	1107496.305514553252	451908.5163362
3	16839	1108859.709356789663	452479.89837461
3	16842	1110242.076656996307	452137.75353551
3	16845	1110430.483687590949	451054.24555592
3	16848	1111269.604768983786	450898.28051002
3	16851	1111414.782877666086	450830.83811922
3	16854	1112304.175068724912	451044.77986046
3	16857	1112372.330171265797	450752.62634321
3	16860	1112805.143045034712	450726.78618292
3	16863	1113758.180947594286	450773.6051934
3	16866	1113898.581529912503	450246.42609166
3	16869	1115683.237312777882	449563.86783706
3	16872	1116183.662200695371	449829.77182153
3	16875	1116346.673610089039	449171.59967953
3	16878	1116956.543203470886	449325.50557386
3	16881	1117456.102780754166	448637.70889086
3	16884	1117563.121536343209	447342.63919933
3	16887	1117730.984043536428	446957.38044194
3	16890	1118525.46054922365	447296.09208242
3	16893	1118571.049166982764	447129.74212201
3	16896	1118848.292517343832	447125.1390767
3	16899	1119053.266317591139	447119.06695462
3	16902	1119162.197520233551	446140.57431388
3	16905	1119491.82058716157	446210.55266375
3	16908	1120886.611539576433	444030.0257416
3	16911	1120940.562437062993	444017.09782808
3	16914	1121992.174940700994	444521.1696805
3	16917	1122693.032066559558	440515.71894721
3	16920	1123211.16955045351	440166.25112509
3	16923	1123493.891218027536	439713.21568227
3	16926	1123813.416174882892	438209.48059296
3	16929	1123923.183250833133	438064.22904429
3	16932	1124111.189464877648	437699.20837233
3	16935	1124480.411949806541	437941.34332477
3	16938	1125359.694444070252	438654.74834618
3	16941	1126007.549607352518	438767.62886554
3	16944	1126617.849850160412	439176.27618758
3	16947	1126780.991403327284	439339.22335346
3	16950	1127380.117021914857	439537.16924155
3	16953	1127876.977404084739	436815.12417569
3	16956	1128167.521144595658	436047.26603482
3	16959	1128397.011270596707	434317.42620395
3	16962	1128414.196433300742	433781.76763893
3	16965	1129781.042168157215	434566.73222477
3	16968	1130116.788117664457	432685.98962356
3	16971	1130722.508278550534	433284.10252011
3	16974	1131496.623669112964	433890.60931762
3	16977	1131677.710919939443	434036.32540568
3	16980	1131968.601816556547	431780.06413259
3	16983	1131975.961734442243	431490.3363995
3	16986	1132532.634199508182	431708.01698756
3	16989	1132973.037840174189	431749.38803621
3	16992	1133236.117726247282	431039.68839954
3	16995	1133326.737998448032	430305.55600301
3	16998	1133663.894478297535	429245.07763965
3	17001	1133717.3125960767	428741.00349114
3	17004	1133736.727365116632	428191.06923228
3	17007	1134840.248166052035	426033.70166021
3	17010	1134992.98180765319	424082.91589758
3	17013	1139054.888079619069	426806.10684435
3	17016	1139993.861069554194	423960.0402042
3	17019	1140123.144597672366	423557.64815023
3	17022	1140274.90874148237	423198.24696567
3	17025	1140422.54185092967	422302.81487537
3	17028	1140670.923058643881	421742.32528106
3	17031	1140745.030593976386	419923.32267199
3	17034	1141091.593738609562	419766.87032491
3	17037	1141343.087862673067	418160.60343342
3	17040	1141939.096526661386	418683.71378875
3	17043	1142764.692850655608	418415.84926234
3	17046	1142881.907630873627	417799.12415912
3	17049	1143378.808809597541	415994.66340977
3	17052	1143409.82051910817	415120.89714299
3	17055	1144179.606232857178	414833.00169722
3	17058	1144986.915040134801	415132.84361047
3	17061	1145093.526315523098	414449.99824531
3	17064	1145608.26890270281	413886.23587727
3	17067	1146147.099714938426	413826.86326403
3	17070	1146753.611856711903	413541.07272136
3	17073	1147784.185741977829	414498.49785441
3	17076	1147861.173195756351	413376.9545714
3	17079	1147996.99753019516	413250.4256889
3	17082	1148259.832134437626	412654.21528022
3	17085	1148742.055731548082	410502.08378778
3	17088	1148992.243159283047	410149.15350918
3	17091	1149202.643065967053	406871.83830886
3	17094	1149490.308483325735	404011.15090347
3	17097	1149631.203218260564	403237.35566441
3	17100	1150660.599244164617	403984.88014635
3	17103	1152096.668081470431	405044.35929312
3	17106	1154065.369704251475	406935.5519718
3	17109	1154241.558172363226	406694.9040601
3	17112	1154254.774828196815	406540.92850594
3	17115	1154301.67841243041	404212.33750119
3	17118	1154385.419608918794	403838.14455977
3	17121	1154587.625941556071	403703.00192077
3	17124	1155342.250711666835	402797.94907189
3	17127	1155586.230423007539	400462.80474242
3	17130	1155623.896869622782	400163.90961311
3	17133	1156197.314612290265	400376.35340873
3	17136	1157721.951819880685	400340.05112653
3	17139	1158952.493664896023	401063.87924213
3	17142	1159453.416111794003	401054.38271657
3	17145	1160151.532734927634	400544.3540299
3	17148	1160156.24174410461	399626.5277343
3	17151	1161254.761968797542	399299.80527762
3	17154	1161746.865474159854	397777.06337728
3	17157	1162011.743286529703	397698.32528753
3	17160	1162163.429255726734	397616.40960631
3	17163	1162685.616189898796	398066.67442966
3	17166	1162971.694278845674	396421.40936626
3	17169	1163123.63572821016	396098.42779077
3	17172	1163185.48418137685	395376.1250267
3	17175	1163215.128304683019	391348.56327582
3	17178	1163595.348353996332	390079.43756929
3	17181	1163782.302502203617	389948.60118298
3	17184	1163880.959840197251	387434.49857181
3	17187	1164372.946403504256	387019.24510219
3	17190	1164509.577552527224	386525.29190208
3	17193	1164641.534251045973	385272.72790622
3	17196	1165131.001650046066	382636.61458888
3	17199	1165943.222210443206	383231.13707412
3	17202	1166034.323329957354	382561.71311426
3	17205	1166677.264920091598	382841.77427341
3	17208	1166817.328562929737	381923.82300162
3	17211	1166905.991263598938	381096.67667286
3	17214	1166943.348774355795	381052.64731004
3	17217	1167108.45867258007	380824.32823797
3	17220	1167485.456838955016	381145.2891345
3	17223	1168202.528566417388	381319.31806097
3	17226	1168315.263724551902	378012.84258629
3	17229	1168430.192317921474	374047.04409388
3	17232	1169306.959929934035	374616.19803757
3	17235	1169472.540194527535	373623.14747963
3	17238	1169840.359970996414	373087.2838807
3	17241	1170013.051132147716	373096.79749672
3	17244	1170116.095197525367	372634.76657877
3	17247	1170779.72115023995	370783.29861773
3	17250	1170782.727156466564	369776.74166146
3	17253	1170798.235542297767	367929.18019968
3	17256	1170849.256188639052	367465.24507093
3	17259	1170880.759761706972	367203.01689169
3	17262	1170988.463981975062	365935.57998316
3	17265	1171343.494227184988	365558.34301309
3	17268	1171673.98165748869	365763.36944938
3	17271	1171881.957448686666	365293.06197919
3	17274	1171970.113559958128	364048.03370504
3	17277	1172381.968852719588	362315.15401951
3	17280	1172853.762796450235	361990.9344202
3	17283	1172981.121376219296	361983.89449294
3	17286	1173019.331204642601	361031.56805724
3	17289	1174007.095496845758	360707.43689204
3	17292	1174216.861192089238	360489.13794543
3	17295	1174805.022167216719	361042.01795023
3	17298	1174915.97458475839	360933.27491768
3	17301	1174944.80631732726	360682.13667766
3	17304	1175612.207269458518	356497.85508307
3	17307	1176241.875456439482	356774.82672245
3	17310	1176298.146220204741	356739.26301748
3	17313	1177733.659513373915	357759.82781277
3	17316	1177786.479580221291	356790.44470707
3	17319	1178959.823480873583	356948.86509465
3	17322	1179584.980696736811	355677.77687319
3	17325	1180131.550192010565	355202.25276433
3	17328	1180309.733130331867	355305.09744555
3	17331	1180363.954527725608	355220.12950589
3	17334	1181000.015888831889	355588.84298886
3	17337	1181352.737276111404	354550.96420202
3	17340	1181801.841512877171	353544.71239216
3	17343	1181939.280000688842	353569.2797258
3	17346	1181977.23425291933	349775.93142604
3	17349	1183421.357202226515	350861.07621431
3	17352	1184877.183415511695	350820.02132247
3	17355	1185396.698179375846	351007.13443122
3	17358	1186492.406367378866	351604.22824358
3	17361	1186880.215079226546	351314.14663036
3	17364	1187545.508159742681	351445.78880969
3	17367	1188033.666090513401	346159.63352483
3	17370	1188782.70026704068	346424.48686753
3	17373	1189019.525160918672	346533.52080212
3	17376	1189417.76498213185	343922.32652951
3	17379	1189609.450845559403	343983.02234548
3	17382	1190647.814679425203	344151.38796848
3	17385	1191776.316109032546	345120.62005609
3	17388	1191997.224713137572	344999.66669208
3	17391	1192163.004862523704	344665.05545047
3	17394	1193083.192120346109	344710.15098139
3	17397	1193100.585265576787	344408.2735853
3	17400	1193352.526411913216	343994.52485973
3	17403	1193563.051652497931	344040.78766707
3	17406	1194188.698987905894	342906.37118026
3	17409	1194830.79187051436	342837.31464634
3	17412	1195096.092349744902	342506.72639286
3	17415	1195525.774576907621	342411.23231011
3	17418	1196016.811570754426	340901.36101585
3	17421	1197362.702288413401	339980.40342478
3	17424	1197595.640052676428	337939.68552
3	17427	1197641.78521464739	337747.29783137
3	17430	1197839.052479010359	337887.1472436
3	17433	1198835.840936903301	337962.13930205
3	17436	1199269.707602195937	336843.81556669
3	17439	1199458.854094407214	335782.34618168
3	17442	1200084.493548369657	336063.93367971
3	17445	1200348.544192933499	335798.93228526
3	17448	1200383.464553340269	335381.54538496
3	17451	1200613.402436570438	331605.47333866
3	17454	1200739.434568281487	331725.75323775
3	17457	1200790.320467196898	330252.60942689
3	17460	1201155.411085638306	330314.44428145
3	17463	1201272.442646695188	330394.27211856
3	17466	1201415.462673360577	329709.57215101
3	17469	1201972.71654362954	327371.94771561
3	17472	1202330.256082331506	326336.74656534
3	17475	1202339.822657670167	326240.42989106
3	17478	1204402.959516572847	326066.22418084
3	17481	1204462.036980199729	325434.69759488
3	17484	1205351.323333043096	325903.30508718
3	17487	1205361.817555561402	324717.21262209
3	17490	1205716.087996462962	323279.19574487
3	17493	1206516.563134082643	322619.3653112
3	17496	1206545.639324750572	321224.68213544
3	17499	1206940.433087908273	320664.39063364
3	17502	1207651.802088683044	319271.0835471
3	17505	1207728.348221641908	318657.171053
3	17508	1208973.238529875148	319739.44540793
3	17511	1209575.087213364754	318903.7442712
3	17514	1209631.278398677122	318405.54637457
3	17517	1211030.825187294011	318879.22629776
3	17520	1211427.411430088406	319267.5420789
3	17523	1212548.055257781962	318201.44982299
3	17526	1212614.004322230558	317773.15565463
3	17529	1213660.107228877999	318158.31594811
3	17532	1213708.612750507326	317016.33354982
3	17535	1213711.835349722267	316836.82931375
3	17538	1213899.746613786594	312895.29361008
3	17541	1214265.205714036125	313063.16703846
3	17544	1214385.066747127841	312330.64003682
3	17547	1214506.95491948	310808.33692383
3	17550	1215054.30470160172	311082.36696578
3	17553	1215396.091719607347	308397.05040697
3	17556	1215501.488431473352	307267.64560398
3	17559	1215658.806911945292	305745.57323043
3	17562	1216428.542128801276	303625.9349621
3	17565	1216497.114126702216	302671.56630672
3	17568	1216610.207861020808	301397.01607316
3	17571	1216851.824637402022	301266.50526124
3	17574	1217294.512276475337	301395.39556185
3	17577	1217575.384585850274	301268.84171856
3	17580	1217654.328640159312	301173.35132356
3	17583	1219537.527043715269	302667.0675452
3	17586	1219895.890642203415	302234.65064727
3	17589	1219913.692068588037	301332.58544784
3	17592	1220201.712832441594	299507.02986297
3	17595	1220348.985061699435	297289.99647531
3	17598	1220697.178452928435	297291.06052076
3	17601	1221482.116933958235	297736.99642755
3	17604	1221681.876598283288	297585.85677978
3	17607	1222124.899440373479	297685.36167907
3	17610	1223219.654286466872	298559.66294922
3	17613	1223939.986524199084	296208.18968955
3	17616	1224092.796277011755	296130.5054072
3	17619	1224536.538862767629	295989.58340377
3	17622	1225517.736369158293	296708.96013633
3	17625	1226103.487880114407	295577.30237992
3	17628	1226668.514029530044	295012.58028404
3	17631	1226947.620000681318	293171.00321151
3	17634	1227135.16758054123	292025.30413443
3	17637	1227229.39316611991	291468.21755313
3	17640	1227481.579425840417	290819.21341443
3	17643	1228164.148302557623	290453.85442259
3	17646	1229011.618878331083	290608.60667165
3	17649	1229356.412790408166	287195.94984561
3	17652	1229438.212041109741	285499.91082697
3	17655	1229499.96384612507	284568.72795008
3	17658	1229568.828028896292	284155.99461131
3	17661	1230240.489336737665	282828.53612215
3	17664	1230584.863068386725	280812.31265256
3	17667	1231893.542124161921	281458.64437413
3	17670	1233537.375146060633	283087.09721166
3	17673	1233712.008440914188	283067.60324735
3	17676	1233996.788433803442	279441.60060097
3	17679	1234139.590144359639	279486.63380422
3	17682	1234532.114219951996	279209.83505738
3	17685	1234567.177868985206	278702.60145935
3	17688	1234971.192500136875	275212.07029861
3	17691	1235420.048549901441	274923.34045137
3	17694	1235901.370380817067	274876.82422753
3	17697	1237213.795110893118	275675.64228354
3	17700	1237674.218881427606	275880.65439024
3	17703	1237734.296415240351	275365.55280404
3	17706	1238589.874900082423	274508.88124821
3	17709	1238862.737141039989	273863.28579443
3	17712	1239095.934119505548	273665.15944986
3	17715	1239138.43351479252	273025.80433789
3	17718	1240345.757382286	271792.66047975
3	17721	1240360.021228237563	271044.81475223
3	17724	1240979.034747219597	271246.68847655
3	17727	1241427.902828828276	271629.0992553
3	17730	1241559.634171296327	271139.06048932
3	17733	1242390.917145165985	271621.56167184
3	17736	1242531.29989505512	271586.78146508
3	17739	1242700.566627683592	271639.60047899
3	17742	1242909.542795372921	270254.05498184
3	17745	1243766.716893600695	269837.73883899
3	17748	1245219.68677861313	269745.58379232
3	17751	1245270.85225749031	268592.50835125
3	17754	1245280.588273791202	266594.59316119
3	17757	1245392.28045480434	266062.72444178
3	17760	1245426.68181464624	265588.68712061
3	17763	1246379.701577582042	264884.2792334
3	17766	1246614.307238170814	264509.95565078
3	17769	1246906.246075154458	264169.20537107
3	17772	1247279.447711038171	263910.73461101
3	17775	1247664.548268163899	261347.98417332
3	17778	1248821.824332718378	261714.59734091
3	17781	1248837.754602468837	259961.21437967
3	17784	1249487.945893425962	258052.56834077
3	17787	1249544.422677503396	257477.39930484
3	17790	1249560.419421506199	257038.57855461
3	17793	1249584.013923056016	255972.28221513
3	17796	1249626.012425346811	255559.72195501
3	17799	1250593.459657992157	252079.08454916
3	17802	1250662.370227066817	248949.26564328
3	17805	1250721.878409189357	248134.47418469
3	17808	1251376.430344955348	248285.2240211
3	17811	1252155.251190972473	245602.9251647
3	17814	1252320.317010833768	239704.46412964
3	17817	1252498.023555677074	239451.9157971
3	17820	1253157.317103174809	239650.86462414
3	17823	1253820.025778382966	239747.22934368
3	17826	1253821.963378063989	238636.46893311
3	17829	1254008.639110592971	237222.68417806
3	17832	1254346.72100639312	237371.63156706
3	17835	1254474.765267432725	236204.49772104
3	17838	1254882.781033624704	235886.88702666
3	17841	1254923.199407045613	234287.54826544
3	17844	1255221.859576162242	234135.36547609
3	17847	1255357.278288620818	232893.50567506
3	17850	1256065.468607075459	230760.9485646
3	17853	1256327.552663375798	230314.7419822
3	17856	1256521.301237278074	230149.95995332
3	17859	1257220.434146421102	228245.45838872
3	17862	1257605.26669638949	228614.34063056
3	17865	1257852.861370300266	228408.61599689
3	17868	1257903.108215762979	227567.14250769
3	17871	1259364.457025093352	228373.24682035
3	17874	1259962.287966598669	228564.26492497
3	17877	1260282.902956016238	227689.72650509
3	17880	1260338.599499698698	227316.67932135
3	17883	1260348.982199388918	227079.35805456
3	17886	1260930.118736038703	227491.20051858
3	17889	1261150.731817800695	226154.55699138
3	17892	1261307.530089556875	224915.42841188
3	17895	1261787.429316282915	224471.72973444
3	17898	1261793.493292668493	223600.9957358
3	17901	1261903.21135476619	222990.26816089
3	17904	1262148.19904409301	222028.43531157
3	17907	1262641.159170351612	221356.49851342
3	17910	1263157.927486869864	221051.56833197
3	17913	1263445.861452575713	218426.31407335
3	17916	1264397.126443499927	219101.97478882
3	17919	1264407.843181248202	218413.31954662
3	17922	1264998.760274494899	218319.36331412
3	17925	1265610.650173732472	217885.04670673
3	17928	1265938.227178639106	217584.37084785
3	17931	1266275.999407324176	216088.0947168
3	17934	1266457.418328055422	216079.94864083
3	17937	1266492.803626741361	215793.82187496
3	17940	1266828.646727779112	215770.64454785
3	17943	1267093.645052152263	214858.71927448
3	17946	1267982.644924292181	212093.64243744
3	17949	1268121.84434095206	211575.42096732
3	17952	1268936.961156177131	212261.23356827
3	17955	1269807.30021330204	213003.3966006
3	17958	1269811.301241297565	212417.47871342
3	17961	1269949.13860703083	211669.46534248
3	17964	1270409.212723151517	212026.21609555
3	17967	1271577.246561176461	210405.04164206
3	17970	1271645.558920637746	210290.72401539
3	17973	1271970.228584442531	208170.63403959
3	17976	1272639.514055806265	208633.96643183
3	17979	1272800.211325433025	206852.61624325
3	17982	1273566.485101958309	206524.42386196
3	17985	1274256.786495133426	206829.66654207
3	17988	1275075.287564026945	206583.13022179
3	17991	1275566.57424588006	206125.57910042
3	17994	1275707.681439481016	205673.55456728
3	17997	1275927.308119024366	203171.38920641
3	18000	1276358.210871788882	201159.68328415
3	18003	1276766.424780404026	200606.10160653

